m
  MOLSOFT 07062520553D

 44 45  0  0  0  0  0  0  0  0999 V2000
   62.5963   10.5563   -9.0854 H   0  0  0
   61.9653   10.9592   -8.2864 C   0  0  0
   62.3359   11.9463   -8.0117 H   0  0  0
   61.8901   10.0424   -7.0814 C   0  0  0
   61.1390   10.3764   -6.3640 H   0  0  0
   63.2199    9.7564   -6.3794 C   0  0  0
   64.0955   10.3014   -6.7462 H   0  0  0
   63.1452    9.8120   -5.2932 H   0  0  0
   63.1178    8.3991   -6.9033 N   0  0  0
   61.7581    8.5517   -7.4113 C   0  0  0
   61.0467    7.9829   -6.8124 H   0  0  0
   61.6346    8.2980   -8.4659 H   0  0  0
   63.9799    7.3240   -6.8739 C   0  0  0
   65.0116    7.2423   -6.2294 O   0  0  0
   63.5154    6.1984   -7.7080 C   0  0  0
   63.1287    5.3405   -7.1687 H   0  0  0
   63.4982    6.2958   -9.0535 C   0  0  0
   64.0701    7.4471   -9.8388 C   0  0  0
   63.2837    8.0109  -10.3468 H   0  0  0
   64.7670    7.0817  -10.5973 H   0  0  0
   64.6363    8.1491   -9.2215 H   0  0  0
   62.8599    5.2135   -9.8706 C   0  0  0
   62.8893    4.0341   -9.1960 F   0  0  0
   63.5780    4.9869  -10.9984 F   0  0  0
   61.4076    5.5498  -10.2415 C   0  0  0
   60.8156    4.5444  -10.9429 F   0  0  0
   61.3207    6.6739  -11.0052 F   0  0  0
   60.6466    5.7671   -9.1331 F   0  0  0
   60.5992   11.1250   -8.7326 N   0  0  0
   60.0258   11.7747   -8.2116 H   0  0  0
   60.0900   10.4328   -9.8115 C   0  0  0
   60.7996    9.7113  -10.4936 O   0  0  0
   58.6602   10.6010  -10.0733 C   0  0  0
   57.8070   11.3074   -9.2358 C   0  0  0
   58.0263   11.8341   -8.3250 H   0  0  0
   56.1757   11.3196   -9.7294 S   0  0  0
   56.5792   10.4678  -11.1400 C   0  0  0
   55.7863   10.2545  -11.8426 H   0  0  0
   57.9119   10.0954  -11.2096 C   0  0  0
   58.3369    9.3227  -12.3642 C   0  0  0
   57.7337    9.3842  -13.4195 O   0  0  0
   59.3934    8.4736  -12.2269 N   0  0  0
   59.6219    7.8513  -12.9930 H   0  0  0
   59.9464    8.3782  -11.3831 H   0  0  0
  2  1  1
  2  3  1
  2  4  1
  2 29  1
  4  5  1
  4  6  1
  4 10  1
  6  7  1
  6  8  1
  6  9  1
  9 10  1
  9 13  1
 10 11  1
 10 12  1
 13 14  2
 13 15  1
 15 16  1
 15 17  2
 17 18  1
 17 22  1
 18 19  1
 18 20  1
 18 21  1
 22 23  1
 22 24  1
 22 25  1
 25 26  1
 25 27  1
 25 28  1
 29 30  1
 29 31  1
 31 32  2
 31 33  1
 33 34  2
 33 39  1
 34 35  1
 34 36  1
 36 37  1
 37 38  1
 37 39  2
 39 40  1
 40 41  2
 40 42  1
 42 43  1
 42 44  1
M  ZZC   1 h21
M  ZZC   2 c2
M  ZZC   3 h22
M  ZZC   4 c3
M  ZZC   5 h31
M  ZZC   6 c4
M  ZZC   7 h41
M  ZZC   8 h42
M  ZZC   9 n2
M  ZZC  10 c6
M  ZZC  11 h61
M  ZZC  12 h62
M  ZZC  13 c5
M  ZZC  14 o3
M  ZZC  15 c14
M  ZZC  16 h141
M  ZZC  17 c13
M  ZZC  18 c12
M  ZZC  19 h121
M  ZZC  20 h122
M  ZZC  21 h123
M  ZZC  22 c15
M  ZZC  23 f1
M  ZZC  24 f2
M  ZZC  25 c16
M  ZZC  26 f3
M  ZZC  27 f4
M  ZZC  28 f5
M  ZZC  29 n1
M  ZZC  30 h11
M  ZZC  31 c1
M  ZZC  32 o2
M  ZZC  33 c11
M  ZZC  34 c10
M  ZZC  35 h101
M  ZZC  36 s1
M  ZZC  37 c9
M  ZZC  38 h91
M  ZZC  39 c8
M  ZZC  40 c7
M  ZZC  41 o1
M  ZZC  42 n3
M  ZZC  43 h01
M  ZZC  44 h32
M  ZZO   1 1.000000
M  ZZO   2 1.000000
M  ZZO   3 1.000000
M  ZZO   4 1.000000
M  ZZO   5 1.000000
M  ZZO   6 1.000000
M  ZZO   7 1.000000
M  ZZO   8 1.000000
M  ZZO   9 1.000000
M  ZZO  10 1.000000
M  ZZO  11 1.000000
M  ZZO  12 1.000000
M  ZZO  13 1.000000
M  ZZO  14 1.000000
M  ZZO  15 1.000000
M  ZZO  16 1.000000
M  ZZO  17 1.000000
M  ZZO  18 1.000000
M  ZZO  19 1.000000
M  ZZO  20 1.000000
M  ZZO  21 1.000000
M  ZZO  22 1.000000
M  ZZO  23 1.000000
M  ZZO  24 1.000000
M  ZZO  25 1.000000
M  ZZO  26 1.000000
M  ZZO  27 1.000000
M  ZZO  28 1.000000
M  ZZO  29 1.000000
M  ZZO  30 1.000000
M  ZZO  31 1.000000
M  ZZO  32 1.000000
M  ZZO  33 1.000000
M  ZZO  34 1.000000
M  ZZO  35 1.000000
M  ZZO  36 1.000000
M  ZZO  37 1.000000
M  ZZO  38 1.000000
M  ZZO  39 1.000000
M  ZZO  40 1.000000
M  ZZO  41 1.000000
M  ZZO  42 1.000000
M  ZZO  43 1.000000
M  ZZO  44 1.000000
M  ZZM   1 5
M  ZZI   1 1
M  ZZM   2 1
M  ZZI   2 112
M  ZZM   3 5
M  ZZI   3 1
M  ZZM   4 20
M  ZZI   4 108
M  ZZM   5 5
M  ZZI   5 1
M  ZZM   6 20
M  ZZI   6 108
M  ZZM   7 5
M  ZZI   7 1
M  ZZM   8 5
M  ZZI   8 1
M  ZZM   9 10
M  ZZI   9 191
M  ZZM  10 20
M  ZZI  10 108
M  ZZM  11 5
M  ZZI  11 1
M  ZZM  12 5
M  ZZI  12 1
M  ZZM  13 3
M  ZZI  13 121
M  ZZM  14 7
M  ZZI  14 81
M  ZZM  15 2
M  ZZI  15 120
M  ZZM  16 5
M  ZZI  16 2
M  ZZM  17 2
M  ZZI  17 120
M  ZZM  18 1
M  ZZI  18 111
M  ZZM  19 5
M  ZZI  19 1
M  ZZM  20 5
M  ZZI  20 1
M  ZZM  21 5
M  ZZI  21 1
M  ZZM  22 1
M  ZZI  22 115
M  ZZM  23 11
M  ZZI  23 90
M  ZZM  24 11
M  ZZI  24 90
M  ZZM  25 1
M  ZZI  25 115
M  ZZM  26 11
M  ZZI  26 90
M  ZZM  27 11
M  ZZI  27 90
M  ZZM  28 11
M  ZZI  28 90
M  ZZM  29 10
M  ZZI  29 211
M  ZZM  30 28
M  ZZI  30 11
M  ZZM  31 3
M  ZZI  31 121
M  ZZM  32 7
M  ZZI  32 81
M  ZZM  33 64
M  ZZI  33 105
M  ZZM  34 63
M  ZZI  34 104
M  ZZM  35 5
M  ZZI  35 2
M  ZZM  36 44
M  ZZI  36 248
M  ZZM  37 63
M  ZZI  37 104
M  ZZM  38 5
M  ZZI  38 2
M  ZZM  39 64
M  ZZI  39 105
M  ZZM  40 3
M  ZZI  40 121
M  ZZM  41 7
M  ZZI  41 81
M  ZZM  42 10
M  ZZI  42 212
M  ZZM  43 28
M  ZZI  43 11
M  ZZM  44 28
M  ZZI  44 11
M  ZZQ   2 0.300000
M  ZZQ   6 0.225000
M  ZZQ   9 -0.510000
M  ZZQ  10 0.225000
M  ZZQ  13 0.616000
M  ZZQ  14 -0.570000
M  ZZQ  15 0.014000
M  ZZQ  16 0.150000
M  ZZQ  17 -0.276000
M  ZZQ  18 0.138000
M  ZZQ  22 0.818000
M  ZZQ  23 -0.340000
M  ZZQ  24 -0.340000
M  ZZQ  25 1.020000
M  ZZQ  26 -0.340000
M  ZZQ  27 -0.340000
M  ZZQ  28 -0.340000
M  ZZQ  29 -0.360000
M  ZZQ  30 0.370000
M  ZZQ  31 0.716000
M  ZZQ  32 -0.570000
M  ZZQ  33 -0.086000
M  ZZQ  34 0.040000
M  ZZQ  35 0.150000
M  ZZQ  36 -0.080000
M  ZZQ  37 0.040000
M  ZZQ  38 0.150000
M  ZZQ  39 -0.086000
M  ZZQ  40 0.716000
M  ZZQ  41 -0.570000
M  ZZQ  42 -0.060000
M  ZZQ  43 0.370000
M  ZZQ  44 0.370000
M  END
> <L>
0

> <full_synton_id>
{EN_m_275592aea_11001X643X393__s14114808_s18992764_s19059000___12}

> <smiles_synthon_s1>


> <smiles_synthon_s2>


> <smiles_synthon_s3>
s-1

> <Tox_Class>
0.

> <Tox_Names>


> <Tox_Score>
0.

> <molPAINS>
0.

> <badGroups>


> <orig_MEL_frag>
CC(=CC(N1CC(CNC(c2cscc2C(N)=O)=O)C1)=O)C(C(F)(F)F)(F)F

> <MW>
425.083

> <orig_Score>
-26.820701

> <orig_Score2>
25.065411

> <LogP>
1.899

> <IX>
3664

> <NAME>
C4H8N2X2

> <Score>
-31.280679

> <Natom>
44

> <Nflex>
4

> <Hbond>
-7.106164

> <Hphob>
-6.308242

> <VwInt>
-31.521953

> <Eintl>
4.963392

> <Dsolv>
11.720853

> <SolEl>
12.541992

> <mfScore>
-119.099691

> <RTCNNscore>
-25.174874

> <dTSsc>
1.302505

> <CONF>
0

> <RecConf>
1

> <O>
2043

> <OBJECTS>
RHO_1u19_reg3664[nat=46,nre=1]

> <rxn_ID>
EN_m_275592aea_11001X643X393

> <synton_id_1>
s14114808

> <synton_id_2>
s18992764

> <synton_id_3>
s19059000

$$$$
m
  MOLSOFT 07062520553D

 42 43  0  0  0  0  0  0  0  0999 V2000
   62.5592   10.7750   -9.2785 H   0  0  0
   61.9676   11.0125   -8.3882 C   0  0  0
   62.2786   11.9921   -8.0269 H   0  0  0
   62.1027    9.9636   -7.3050 C   0  0  0
   61.5474   10.2270   -6.3970 H   0  0  0
   63.5505    9.5757   -6.9788 C   0  0  0
   64.3007    9.7824   -7.7484 H   0  0  0
   63.8982    9.9100   -6.0006 H   0  0  0
   63.0833    8.1930   -7.0143 N   0  0  0
   61.8531    8.5107   -7.7310 C   0  0  0
   60.9576    8.0454   -7.3158 H   0  0  0
   61.9383    8.2949   -8.8002 H   0  0  0
   63.6890    7.0139   -6.6331 C   0  0  0
   64.8048    6.9687   -6.1384 O   0  0  0
   62.8563    5.7667   -6.8511 C   0  0  0
   63.2604    4.9636   -6.2274 H   0  0  0
   61.8381    5.9555   -6.5017 H   0  0  0
   62.8616    5.3420   -8.2893 C   0  0  0
   63.8059    5.0163   -8.7145 H   0  0  0
   61.7427    5.3223   -9.0281 C   0  0  0
   60.8024    5.6374   -8.5872 H   0  0  0
   61.6982    4.8769  -10.3937 C   0  0  0
   62.6353    4.5920  -10.8593 H   0  0  0
   60.5545    4.7856  -11.0811 C   0  0  0
   59.5990    5.0560  -10.6488 H   0  0  0
   60.5443    4.4124  -12.0961 H   0  0  0
   60.5615   11.0994   -8.7171 N   0  0  0
   59.9795   11.6628   -8.1125 H   0  0  0
   60.0457   10.4705   -9.8321 C   0  0  0
   60.7602    9.8232  -10.5805 O   0  0  0
   58.6084   10.6124  -10.0615 C   0  0  0
   57.7592   11.3172   -9.2196 C   0  0  0
   57.9869   11.8597   -8.3202 H   0  0  0
   56.1218   11.3055   -9.6957 S   0  0  0
   56.5187   10.4488  -11.1064 C   0  0  0
   55.7217   10.2242  -11.8012 H   0  0  0
   57.8548   10.0929  -11.1877 C   0  0  0
   58.2856    9.3185  -12.3399 C   0  0  0
   57.6865    9.3743  -13.3977 O   0  0  0
   59.3463    8.4747  -12.1931 N   0  0  0
   59.5854    7.8518  -12.9557 H   0  0  0
   59.8964    8.4015  -11.3462 H   0  0  0
  2  1  1
  2  3  1
  2  4  1
  2 27  1
  4  5  1
  4  6  1
  4 10  1
  6  7  1
  6  8  1
  6  9  1
  9 10  1
  9 13  1
 10 11  1
 10 12  1
 13 14  2
 13 15  1
 15 16  1
 15 17  1
 15 18  1
 18 19  1
 18 20  2
 20 21  1
 20 22  1
 22 23  1
 22 24  2
 24 25  1
 24 26  1
 27 28  1
 27 29  1
 29 30  2
 29 31  1
 31 32  2
 31 37  1
 32 33  1
 32 34  1
 34 35  1
 35 36  1
 35 37  2
 37 38  1
 38 39  2
 38 40  1
 40 41  1
 40 42  1
M  ZZC   1 h21
M  ZZC   2 c2
M  ZZC   3 h22
M  ZZC   4 c3
M  ZZC   5 h31
M  ZZC   6 c4
M  ZZC   7 h41
M  ZZC   8 h42
M  ZZC   9 n2
M  ZZC  10 c6
M  ZZC  11 h61
M  ZZC  12 h62
M  ZZC  13 c5
M  ZZC  14 o3
M  ZZC  15 c16
M  ZZC  16 h161
M  ZZC  17 h162
M  ZZC  18 c15
M  ZZC  19 h151
M  ZZC  20 c14
M  ZZC  21 h141
M  ZZC  22 c13
M  ZZC  23 h131
M  ZZC  24 c12
M  ZZC  25 h121
M  ZZC  26 h122
M  ZZC  27 n1
M  ZZC  28 h11
M  ZZC  29 c1
M  ZZC  30 o2
M  ZZC  31 c11
M  ZZC  32 c10
M  ZZC  33 h101
M  ZZC  34 s1
M  ZZC  35 c9
M  ZZC  36 h91
M  ZZC  37 c8
M  ZZC  38 c7
M  ZZC  39 o1
M  ZZC  40 n3
M  ZZC  41 h01
M  ZZC  42 h32
M  ZZO   1 1.000000
M  ZZO   2 1.000000
M  ZZO   3 1.000000
M  ZZO   4 1.000000
M  ZZO   5 1.000000
M  ZZO   6 1.000000
M  ZZO   7 1.000000
M  ZZO   8 1.000000
M  ZZO   9 1.000000
M  ZZO  10 1.000000
M  ZZO  11 1.000000
M  ZZO  12 1.000000
M  ZZO  13 1.000000
M  ZZO  14 1.000000
M  ZZO  15 1.000000
M  ZZO  16 1.000000
M  ZZO  17 1.000000
M  ZZO  18 1.000000
M  ZZO  19 1.000000
M  ZZO  20 1.000000
M  ZZO  21 1.000000
M  ZZO  22 1.000000
M  ZZO  23 1.000000
M  ZZO  24 1.000000
M  ZZO  25 1.000000
M  ZZO  26 1.000000
M  ZZO  27 1.000000
M  ZZO  28 1.000000
M  ZZO  29 1.000000
M  ZZO  30 1.000000
M  ZZO  31 1.000000
M  ZZO  32 1.000000
M  ZZO  33 1.000000
M  ZZO  34 1.000000
M  ZZO  35 1.000000
M  ZZO  36 1.000000
M  ZZO  37 1.000000
M  ZZO  38 1.000000
M  ZZO  39 1.000000
M  ZZO  40 1.000000
M  ZZO  41 1.000000
M  ZZO  42 1.000000
M  ZZM   1 5
M  ZZI   1 1
M  ZZM   2 1
M  ZZI   2 112
M  ZZM   3 5
M  ZZI   3 1
M  ZZM   4 20
M  ZZI   4 108
M  ZZM   5 5
M  ZZI   5 1
M  ZZM   6 20
M  ZZI   6 108
M  ZZM   7 5
M  ZZI   7 1
M  ZZM   8 5
M  ZZI   8 1
M  ZZM   9 10
M  ZZI   9 191
M  ZZM  10 20
M  ZZI  10 108
M  ZZM  11 5
M  ZZI  11 1
M  ZZM  12 5
M  ZZI  12 1
M  ZZM  13 3
M  ZZI  13 121
M  ZZM  14 7
M  ZZI  14 81
M  ZZM  15 1
M  ZZI  15 112
M  ZZM  16 5
M  ZZI  16 1
M  ZZM  17 5
M  ZZI  17 1
M  ZZM  18 2
M  ZZI  18 120
M  ZZM  19 5
M  ZZI  19 2
M  ZZM  20 2
M  ZZI  20 120
M  ZZM  21 5
M  ZZI  21 2
M  ZZM  22 2
M  ZZI  22 120
M  ZZM  23 5
M  ZZI  23 2
M  ZZM  24 2
M  ZZI  24 120
M  ZZM  25 5
M  ZZI  25 2
M  ZZM  26 5
M  ZZI  26 2
M  ZZM  27 10
M  ZZI  27 211
M  ZZM  28 28
M  ZZI  28 11
M  ZZM  29 3
M  ZZI  29 121
M  ZZM  30 7
M  ZZI  30 81
M  ZZM  31 64
M  ZZI  31 105
M  ZZM  32 63
M  ZZI  32 104
M  ZZM  33 5
M  ZZI  33 2
M  ZZM  34 44
M  ZZI  34 248
M  ZZM  35 63
M  ZZI  35 104
M  ZZM  36 5
M  ZZI  36 2
M  ZZM  37 64
M  ZZI  37 105
M  ZZM  38 3
M  ZZI  38 121
M  ZZM  39 7
M  ZZI  39 81
M  ZZM  40 10
M  ZZI  40 212
M  ZZM  41 28
M  ZZI  41 11
M  ZZM  42 28
M  ZZI  42 11
M  ZZQ   2 0.300000
M  ZZQ   6 0.225000
M  ZZQ   9 -0.510000
M  ZZQ  10 0.225000
M  ZZQ  13 0.569000
M  ZZQ  14 -0.570000
M  ZZQ  15 0.199000
M  ZZQ  18 -0.138000
M  ZZQ  19 0.150000
M  ZZQ  21 0.150000
M  ZZQ  23 0.150000
M  ZZQ  25 0.150000
M  ZZQ  26 0.150000
M  ZZQ  27 -0.360000
M  ZZQ  28 0.370000
M  ZZQ  29 0.716000
M  ZZQ  30 -0.570000
M  ZZQ  31 -0.086000
M  ZZQ  32 0.040000
M  ZZQ  33 0.150000
M  ZZQ  34 -0.080000
M  ZZQ  35 0.040000
M  ZZQ  36 0.150000
M  ZZQ  37 -0.086000
M  ZZQ  38 0.716000
M  ZZQ  39 -0.570000
M  ZZQ  40 -0.060000
M  ZZQ  41 0.370000
M  ZZQ  42 0.370000
M  END
> <L>
0

> <full_synton_id>
{EN_m_275592aea_11001X643X393__s14114808_s18992764_s15860802___12}

> <smiles_synthon_s3>
s-1

> <Tox_Class>
0.

> <Tox_Score>
0.

> <molPAINS>
0.

> <orig_MEL_frag>
C=CC=CCC(N1CC(CNC(c2cscc2C(N)=O)=O)C1)=O

> <MW>
333.115

> <orig_Score>
-26.820701

> <orig_Score2>
25.065411

> <LogP>
1.048

> <IX>
3648

> <NAME>
C4H8N2X2

> <Score>
-30.435427

> <Natom>
42

> <Nflex>
5

> <Hbond>
-5.52483

> <Hphob>
-5.733749

> <VwInt>
-31.917657

> <Eintl>
4.542729

> <Dsolv>
10.898697

> <SolEl>
8.184852

> <mfScore>
-126.804708

> <RTCNNscore>
-19.550329

> <dTSsc>
1.268156

> <CONF>
0

> <RecConf>
1

> <O>
2037

> <OBJECTS>
RHO_1u19_reg3648[nat=44,nre=1]

> <rxn_ID>
EN_m_275592aea_11001X643X393

> <synton_id_1>
s14114808

> <synton_id_2>
s18992764

> <synton_id_3>
s15860802

$$$$
m
  MOLSOFT 07062520553D

 34 35  0  0  0  0  0  0  0  0999 V2000
   62.5827   10.6836   -9.2420 H   0  0  0
   61.9655   10.9029   -8.3648 C   0  0  0
   62.3072   11.8394   -7.9239 H   0  0  0
   61.9722    9.7787   -7.3503 C   0  0  0
   61.2471    9.9562   -6.5478 H   0  0  0
   63.3436    9.4279   -6.7654 C   0  0  0
   64.2178    9.7003   -7.3667 H   0  0  0
   63.4752    9.7363   -5.7266 H   0  0  0
   62.9487    8.0316   -6.9493 N   0  0  0
   61.8884    8.3446   -7.9028 C   0  0  0
   60.9409    7.8301   -7.7178 H   0  0  0
   62.2157    8.1906   -8.9364 H   0  0  0
   63.4886    6.8549   -6.4770 C   0  0  0
   64.4268    6.8037   -5.6971 O   0  0  0
   62.8386    5.6123   -7.0246 C   0  0  0
   63.1286    4.7496   -6.4182 H   0  0  0
   63.1646    5.4527   -8.0569 H   0  0  0
   61.7492    5.7008   -6.9966 H   0  0  0
   60.5836   11.0851   -8.7515 N   0  0  0
   60.0270   11.7212   -8.1963 H   0  0  0
   60.0490   10.4214   -9.8358 C   0  0  0
   60.7428    9.7094  -10.5437 O   0  0  0
   58.6185   10.6051  -10.0784 C   0  0  0
   57.7793   11.3099   -9.2268 C   0  0  0
   58.0134   11.8276   -8.3146 H   0  0  0
   56.1409   11.3236   -9.6999 S   0  0  0
   56.5276   10.4902  -11.1270 C   0  0  0
   55.7269   10.2842  -11.8234 H   0  0  0
   57.8576   10.1124  -11.2108 C   0  0  0
   58.2739    9.3430  -12.3709 C   0  0  0
   57.6683    9.4115  -13.4243 O   0  0  0
   59.3251    8.4857  -12.2371 N   0  0  0
   59.5499    7.8613  -13.0028 H   0  0  0
   59.8617    8.3814  -11.3856 H   0  0  0
  2  1  1
  2  3  1
  2  4  1
  2 19  1
  4  5  1
  4  6  1
  4 10  1
  6  7  1
  6  8  1
  6  9  1
  9 10  1
  9 13  1
 10 11  1
 10 12  1
 13 14  2
 13 15  1
 15 16  1
 15 17  1
 15 18  1
 19 20  1
 19 21  1
 21 22  2
 21 23  1
 23 24  2
 23 29  1
 24 25  1
 24 26  1
 26 27  1
 27 28  1
 27 29  2
 29 30  1
 30 31  2
 30 32  1
 32 33  1
 32 34  1
M  ZZC   1 h21
M  ZZC   2 c2
M  ZZC   3 h22
M  ZZC   4 c3
M  ZZC   5 h31
M  ZZC   6 c4
M  ZZC   7 h41
M  ZZC   8 h42
M  ZZC   9 n2
M  ZZC  10 c6
M  ZZC  11 h61
M  ZZC  12 h62
M  ZZC  13 c5
M  ZZC  14 o3
M  ZZC  15 c12
M  ZZC  16 h121
M  ZZC  17 h122
M  ZZC  18 h123
M  ZZC  19 n1
M  ZZC  20 h11
M  ZZC  21 c1
M  ZZC  22 o2
M  ZZC  23 c11
M  ZZC  24 c10
M  ZZC  25 h101
M  ZZC  26 s1
M  ZZC  27 c9
M  ZZC  28 h91
M  ZZC  29 c8
M  ZZC  30 c7
M  ZZC  31 o1
M  ZZC  32 n3
M  ZZC  33 h01
M  ZZC  34 h32
M  ZZO   1 1.000000
M  ZZO   2 1.000000
M  ZZO   3 1.000000
M  ZZO   4 1.000000
M  ZZO   5 1.000000
M  ZZO   6 1.000000
M  ZZO   7 1.000000
M  ZZO   8 1.000000
M  ZZO   9 1.000000
M  ZZO  10 1.000000
M  ZZO  11 1.000000
M  ZZO  12 1.000000
M  ZZO  13 1.000000
M  ZZO  14 1.000000
M  ZZO  15 1.000000
M  ZZO  16 1.000000
M  ZZO  17 1.000000
M  ZZO  18 1.000000
M  ZZO  19 1.000000
M  ZZO  20 1.000000
M  ZZO  21 1.000000
M  ZZO  22 1.000000
M  ZZO  23 1.000000
M  ZZO  24 1.000000
M  ZZO  25 1.000000
M  ZZO  26 1.000000
M  ZZO  27 1.000000
M  ZZO  28 1.000000
M  ZZO  29 1.000000
M  ZZO  30 1.000000
M  ZZO  31 1.000000
M  ZZO  32 1.000000
M  ZZO  33 1.000000
M  ZZO  34 1.000000
M  ZZM   1 5
M  ZZI   1 1
M  ZZM   2 1
M  ZZI   2 112
M  ZZM   3 5
M  ZZI   3 1
M  ZZM   4 20
M  ZZI   4 108
M  ZZM   5 5
M  ZZI   5 1
M  ZZM   6 20
M  ZZI   6 108
M  ZZM   7 5
M  ZZI   7 1
M  ZZM   8 5
M  ZZI   8 1
M  ZZM   9 10
M  ZZI   9 191
M  ZZM  10 20
M  ZZI  10 108
M  ZZM  11 5
M  ZZI  11 1
M  ZZM  12 5
M  ZZI  12 1
M  ZZM  13 3
M  ZZI  13 121
M  ZZM  14 7
M  ZZI  14 81
M  ZZM  15 1
M  ZZI  15 111
M  ZZM  16 5
M  ZZI  16 1
M  ZZM  17 5
M  ZZI  17 1
M  ZZM  18 5
M  ZZI  18 1
M  ZZM  19 10
M  ZZI  19 211
M  ZZM  20 28
M  ZZI  20 11
M  ZZM  21 3
M  ZZI  21 121
M  ZZM  22 7
M  ZZI  22 81
M  ZZM  23 64
M  ZZI  23 105
M  ZZM  24 63
M  ZZI  24 104
M  ZZM  25 5
M  ZZI  25 2
M  ZZM  26 44
M  ZZI  26 248
M  ZZM  27 63
M  ZZI  27 104
M  ZZM  28 5
M  ZZI  28 2
M  ZZM  29 64
M  ZZI  29 105
M  ZZM  30 3
M  ZZI  30 121
M  ZZM  31 7
M  ZZI  31 81
M  ZZM  32 10
M  ZZI  32 212
M  ZZM  33 28
M  ZZI  33 11
M  ZZM  34 28
M  ZZI  34 11
M  ZZQ   2 0.300000
M  ZZQ   6 0.225000
M  ZZQ   9 -0.510000
M  ZZQ  10 0.225000
M  ZZQ  13 0.569000
M  ZZQ  14 -0.570000
M  ZZQ  15 0.061000
M  ZZQ  19 -0.360000
M  ZZQ  20 0.370000
M  ZZQ  21 0.716000
M  ZZQ  22 -0.570000
M  ZZQ  23 -0.086000
M  ZZQ  24 0.040000
M  ZZQ  25 0.150000
M  ZZQ  26 -0.080000
M  ZZQ  27 0.040000
M  ZZQ  28 0.150000
M  ZZQ  29 -0.086000
M  ZZQ  30 0.716000
M  ZZQ  31 -0.570000
M  ZZQ  32 -0.060000
M  ZZQ  33 0.370000
M  ZZQ  34 0.370000
M  END
> <L>
0

> <full_synton_id>
{EN_m_275592aea_11001X643X393__s14114808_s18992764_s13186206___12}

> <smiles_synthon_s3>
s-1

> <Tox_Class>
0.

> <Tox_Score>
0.

> <molPAINS>
0.

> <orig_MEL_frag>
CC(N1CC(CNC(c2cscc2C(N)=O)=O)C1)=O

> <MW>
281.083

> <orig_Score>
-26.820701

> <orig_Score2>
25.065411

> <LogP>
-0.301

> <IX>
4270

> <NAME>
C4H8N2X2

> <Score>
-30.194114

> <Natom>
34

> <Nflex>
3

> <Hbond>
-6.982458

> <Hphob>
-4.889249

> <VwInt>
-26.375219

> <Eintl>
2.951558

> <Dsolv>
12.168217

> <SolEl>
6.705189

> <mfScore>
-108.333404

> <RTCNNscore>
-20.226336

> <dTSsc>
1.166804

> <CONF>
0

> <RecConf>
1

> <O>
2072

> <OBJECTS>
RHO_1u19_reg4270[nat=36,nre=1]

> <rxn_ID>
EN_m_275592aea_11001X643X393

> <synton_id_1>
s14114808

> <synton_id_2>
s18992764

> <synton_id_3>
s13186206

$$$$
m
  MOLSOFT 07062520553D

 35 36  0  0  0  0  0  0  0  0999 V2000
   62.4859   10.8385   -9.2856 H   0  0  0
   61.8850   11.0293   -8.3907 C   0  0  0
   62.1852   11.9885   -7.9705 H   0  0  0
   62.0000    9.9167   -7.3701 C   0  0  0
   61.3035   10.0423   -6.5336 H   0  0  0
   63.4229    9.6647   -6.8597 C   0  0  0
   64.2395   10.1013   -7.4440 H   0  0  0
   63.5606    9.8666   -5.7955 H   0  0  0
   63.1986    8.2582   -7.1811 N   0  0  0
   61.9748    8.4916   -7.9430 C   0  0  0
   61.1280    7.8758   -7.6239 H   0  0  0
   62.1382    8.3926   -9.0204 H   0  0  0
   63.9207    7.1288   -6.8595 C   0  0  0
   64.8875    7.1151   -6.1141 O   0  0  0
   63.4160    5.8787   -7.4778 C   0  0  0
   62.8724    4.6625   -6.3813 Cl  0  0  0
   63.4646    5.7396   -8.8120 C   0  0  0
   62.9387    4.3402   -9.6715 Cl  0  0  0
   63.8465    6.4975   -9.4884 H   0  0  0
   60.4834   11.1241   -8.7319 N   0  0  0
   59.9015   11.6916   -8.1310 H   0  0  0
   59.9676   10.4956   -9.8461 C   0  0  0
   60.6836    9.8495  -10.5944 O   0  0  0
   58.5299   10.6361  -10.0726 C   0  0  0
   57.6792   11.3272   -9.2211 C   0  0  0
   57.9059   11.8613   -8.3164 H   0  0  0
   56.0398   11.3073   -9.6911 S   0  0  0
   56.4395   10.4748  -11.1156 C   0  0  0
   55.6419   10.2539  -11.8110 H   0  0  0
   57.7762   10.1219  -11.2004 C   0  0  0
   58.2089    9.3556  -12.3569 C   0  0  0
   57.6074    9.4106  -13.4137 O   0  0  0
   59.2768    8.5198  -12.2159 N   0  0  0
   59.5240    7.9062  -12.9834 H   0  0  0
   59.8240    8.4429  -11.3681 H   0  0  0
  2  1  1
  2  3  1
  2  4  1
  2 20  1
  4  5  1
  4  6  1
  4 10  1
  6  7  1
  6  8  1
  6  9  1
  9 10  1
  9 13  1
 10 11  1
 10 12  1
 13 14  2
 13 15  1
 15 16  1
 15 17  2
 17 18  1
 17 19  1
 20 21  1
 20 22  1
 22 23  2
 22 24  1
 24 25  2
 24 30  1
 25 26  1
 25 27  1
 27 28  1
 28 29  1
 28 30  2
 30 31  1
 31 32  2
 31 33  1
 33 34  1
 33 35  1
M  ZZC   1 h21
M  ZZC   2 c2
M  ZZC   3 h22
M  ZZC   4 c3
M  ZZC   5 h31
M  ZZC   6 c4
M  ZZC   7 h41
M  ZZC   8 h42
M  ZZC   9 n2
M  ZZC  10 c6
M  ZZC  11 h61
M  ZZC  12 h62
M  ZZC  13 c5
M  ZZC  14 o3
M  ZZC  15 c12
M  ZZC  16 &Cl1
M  ZZC  17 c13
M  ZZC  18 &Cl2
M  ZZC  19 h131
M  ZZC  20 n1
M  ZZC  21 h11
M  ZZC  22 c1
M  ZZC  23 o2
M  ZZC  24 c11
M  ZZC  25 c10
M  ZZC  26 h101
M  ZZC  27 s1
M  ZZC  28 c9
M  ZZC  29 h91
M  ZZC  30 c8
M  ZZC  31 c7
M  ZZC  32 o1
M  ZZC  33 n3
M  ZZC  34 h01
M  ZZC  35 h32
M  ZZO   1 1.000000
M  ZZO   2 1.000000
M  ZZO   3 1.000000
M  ZZO   4 1.000000
M  ZZO   5 1.000000
M  ZZO   6 1.000000
M  ZZO   7 1.000000
M  ZZO   8 1.000000
M  ZZO   9 1.000000
M  ZZO  10 1.000000
M  ZZO  11 1.000000
M  ZZO  12 1.000000
M  ZZO  13 1.000000
M  ZZO  14 1.000000
M  ZZO  15 1.000000
M  ZZO  16 1.000000
M  ZZO  17 1.000000
M  ZZO  18 1.000000
M  ZZO  19 1.000000
M  ZZO  20 1.000000
M  ZZO  21 1.000000
M  ZZO  22 1.000000
M  ZZO  23 1.000000
M  ZZO  24 1.000000
M  ZZO  25 1.000000
M  ZZO  26 1.000000
M  ZZO  27 1.000000
M  ZZO  28 1.000000
M  ZZO  29 1.000000
M  ZZO  30 1.000000
M  ZZO  31 1.000000
M  ZZO  32 1.000000
M  ZZO  33 1.000000
M  ZZO  34 1.000000
M  ZZO  35 1.000000
M  ZZM   1 5
M  ZZI   1 1
M  ZZM   2 1
M  ZZI   2 112
M  ZZM   3 5
M  ZZI   3 1
M  ZZM   4 20
M  ZZI   4 108
M  ZZM   5 5
M  ZZI   5 1
M  ZZM   6 20
M  ZZI   6 108
M  ZZM   7 5
M  ZZI   7 1
M  ZZM   8 5
M  ZZI   8 1
M  ZZM   9 10
M  ZZI   9 191
M  ZZM  10 20
M  ZZI  10 108
M  ZZM  11 5
M  ZZI  11 1
M  ZZM  12 5
M  ZZI  12 1
M  ZZM  13 3
M  ZZI  13 121
M  ZZM  14 7
M  ZZI  14 81
M  ZZM  15 2
M  ZZI  15 120
M  ZZM  16 12
M  ZZI  16 92
M  ZZM  17 2
M  ZZI  17 120
M  ZZM  18 12
M  ZZI  18 92
M  ZZM  19 5
M  ZZI  19 2
M  ZZM  20 10
M  ZZI  20 211
M  ZZM  21 28
M  ZZI  21 11
M  ZZM  22 3
M  ZZI  22 121
M  ZZM  23 7
M  ZZI  23 81
M  ZZM  24 64
M  ZZI  24 105
M  ZZM  25 63
M  ZZI  25 104
M  ZZM  26 5
M  ZZI  26 2
M  ZZM  27 44
M  ZZI  27 248
M  ZZM  28 63
M  ZZI  28 104
M  ZZM  29 5
M  ZZI  29 2
M  ZZM  30 64
M  ZZI  30 105
M  ZZM  31 3
M  ZZI  31 121
M  ZZM  32 7
M  ZZI  32 81
M  ZZM  33 10
M  ZZI  33 212
M  ZZM  34 28
M  ZZI  34 11
M  ZZM  35 28
M  ZZI  35 11
M  ZZQ   2 0.300000
M  ZZQ   6 0.225000
M  ZZQ   9 -0.510000
M  ZZQ  10 0.225000
M  ZZQ  13 0.616000
M  ZZQ  14 -0.570000
M  ZZQ  15 0.154000
M  ZZQ  16 -0.140000
M  ZZQ  17 0.140000
M  ZZQ  18 -0.140000
M  ZZQ  19 0.150000
M  ZZQ  20 -0.360000
M  ZZQ  21 0.370000
M  ZZQ  22 0.716000
M  ZZQ  23 -0.570000
M  ZZQ  24 -0.086000
M  ZZQ  25 0.040000
M  ZZQ  26 0.150000
M  ZZQ  27 -0.080000
M  ZZQ  28 0.040000
M  ZZQ  29 0.150000
M  ZZQ  30 -0.086000
M  ZZQ  31 0.716000
M  ZZQ  32 -0.570000
M  ZZQ  33 -0.060000
M  ZZQ  34 0.370000
M  ZZQ  35 0.370000
M  END
> <L>
0

> <full_synton_id>
{EN_m_275592aea_11001X643X393__s14114808_s18992764_s19062544___12}

> <smiles_synthon_s3>
s-1

> <Tox_Class>
0.

> <Tox_Score>
0.

> <molPAINS>
0.

> <orig_MEL_frag>
C(C1CN(C1)C(C(=C[Cl])[Cl])=O)NC(c1cscc1C(N)=O)=O

> <MW>
361.005

> <orig_Score>
-26.820701

> <orig_Score2>
25.065411

> <LogP>
1.04

> <IX>
316

> <NAME>
C4H8N2X2

> <Score>
-29.929533

> <Natom>
35

> <Nflex>
3

> <Hbond>
-6.8721

> <Hphob>
-6.111165

> <VwInt>
-28.474205

> <Eintl>
3.234078

> <Dsolv>
12.524606

> <SolEl>
10.441914

> <mfScore>
-107.033488

> <RTCNNscore>
-22.265537

> <dTSsc>
1.275747

> <CONF>
0

> <RecConf>
1

> <O>
1979

> <OBJECTS>
RHO_1u19_reg316[nat=37,nre=1]

> <rxn_ID>
EN_m_275592aea_11001X643X393

> <synton_id_1>
s14114808

> <synton_id_2>
s18992764

> <synton_id_3>
s19062544

$$$$
m
  MOLSOFT 07062520553D

 50 52  0  0  1  0  0  0  0  0999 V2000
   61.1706   10.8371   -7.3175 H   0  0  0
   61.9050   10.2408   -7.8635 C   0  0  0
   62.8613   10.7729   -7.8123 H   0  0  0
   62.0486    9.0007   -7.1188 N   0  0  0
   61.3245    8.7602   -6.4480 H   0  0  0
   63.1994    8.2430   -7.2024 C   0  0  0
   64.1098    8.4869   -7.9772 O   0  0  0
   63.2341    7.0462   -6.3017 C   0  0  1
   64.5007    6.7848   -5.8725 F   0  0  0
   62.6160    7.2100   -5.4160 H   0  0  0
   62.7274    5.8860   -7.1262 C   0  0  0
   61.4349    6.0836   -7.5089 F   0  0  0
   62.7714    4.7380   -6.4030 F   0  0  0
   63.4597    5.6897   -8.2573 F   0  0  0
   61.4704   10.0967   -9.3342 C   0  0  2
   61.5457   11.0982   -9.7654 H   0  0  0
   60.0070    9.6371   -9.5166 C   0  0  0
   59.7888    8.7676   -8.8873 H   0  0  0
   59.3454   10.4441   -9.1897 H   0  0  0
   62.4315    9.2076  -10.1485 N   0  3  2
   63.2818    8.9911   -9.6015 H   0  0  0
   62.8318    9.8611  -11.4306 C   0  0  0
   63.7242    9.3368  -11.7906 H   0  0  0
   63.0888   10.9058  -11.2475 H   0  0  0
   61.7618    7.9687  -10.6501 C   0  0  0
   61.3180    7.4167   -9.8150 H   0  0  0
   62.5235    7.3446  -11.1325 H   0  0  0
   60.7835    8.5870  -11.6395 C   0  0  2
   60.3557    7.8596  -12.3390 H   0  0  0
   61.6381    9.6312  -12.3511 C   0  0  0
   61.9867    9.3069  -13.3299 H   0  0  0
   61.0781   10.5490  -12.5353 H   0  0  0
   59.7023    9.2590  -10.9096 N   0  0  0
   58.5083    9.5546  -11.5844 C   0  0  0
   58.4108    9.4814  -12.8029 O   0  0  0
   57.3546    9.9396  -10.7815 C   0  0  0
   57.1030    9.3810   -9.5894 N   0  0  0
   56.3241   10.8389  -11.1377 C   0  0  0
   56.2768   11.4361  -12.0373 H   0  0  0
   55.4154   10.8165  -10.0981 C   0  0  0
   54.2090   11.5577   -9.8729 C   0  0  0
   53.5918   11.5295   -8.8224 O   0  0  0
   53.8042   12.3282  -10.9180 N   0  0  0
   52.9601   12.8808  -10.8495 H   0  0  0
   54.2995   12.3491  -11.7980 H   0  0  0
   55.9043    9.8710   -9.2338 N   0  0  0
   55.2709    9.3578   -8.0259 C   0  0  0
   55.3325   10.1355   -7.2587 H   0  0  0
   55.8014    8.4576   -7.7035 H   0  0  0
   54.2331    9.0959   -8.2539 H   0  0  0
  2  1  1
  2  3  1
  2  4  1
 15  2  1
  4  5  1
  4  6  1
  6  7  2
  8  6  1
  8  9  1
  8 10  1
  8 11  1
 11 12  1
 11 13  1
 11 14  1
 15 16  1
 15 17  1
 15 20  1
 17 18  1
 17 19  1
 17 33  1
 20 21  1
 20 22  1
 20 25  1
 22 23  1
 22 24  1
 22 30  1
 25 26  1
 25 27  1
 28 25  1
 28 29  1
 28 30  1
 28 33  1
 30 31  1
 30 32  1
 33 34  1
 34 35  2
 34 36  1
 36 37  2
 36 38  1
 37 46  1
 38 39  1
 38 40  2
 40 41  1
 40 46  1
 41 42  2
 41 43  1
 43 44  1
 43 45  1
 46 47  1
 47 48  1
 47 49  1
 47 50  1
M  ZZC   1 h21
M  ZZC   2 c2
M  ZZC   3 h22
M  ZZC   4 n1
M  ZZC   5 h11
M  ZZC   6 c1
M  ZZC   7 o1
M  ZZC   8 c10
M  ZZC   9 f1
M  ZZC  10 h101
M  ZZC  11 c11
M  ZZC  12 f2
M  ZZC  13 f3
M  ZZC  14 f4
M  ZZC  15 c3
M  ZZC  16 h31
M  ZZC  17 c4
M  ZZC  18 h41
M  ZZC  19 h42
M  ZZC  20 n3
M  ZZC  21 h01
M  ZZC  22 c8
M  ZZC  23 h81
M  ZZC  24 h82
M  ZZC  25 c9
M  ZZC  26 h91
M  ZZC  27 h92
M  ZZC  28 c6
M  ZZC  29 h61
M  ZZC  30 c7
M  ZZC  31 h71
M  ZZC  32 h72
M  ZZC  33 n2
M  ZZC  34 c5
M  ZZC  35 o2
M  ZZC  36 c13
M  ZZC  37 n5
M  ZZC  38 c14
M  ZZC  39 h141
M  ZZC  40 c15
M  ZZC  41 c16
M  ZZC  42 o3
M  ZZC  43 n6
M  ZZC  44 h02
M  ZZC  45 h62
M  ZZC  46 n4
M  ZZC  47 c12
M  ZZC  48 h121
M  ZZC  49 h122
M  ZZC  50 h123
M  ZZO   1 1.000000
M  ZZO   2 1.000000
M  ZZO   3 1.000000
M  ZZO   4 1.000000
M  ZZO   5 1.000000
M  ZZO   6 1.000000
M  ZZO   7 1.000000
M  ZZO   8 1.000000
M  ZZO   9 1.000000
M  ZZO  10 1.000000
M  ZZO  11 1.000000
M  ZZO  12 1.000000
M  ZZO  13 1.000000
M  ZZO  14 1.000000
M  ZZO  15 1.000000
M  ZZO  16 1.000000
M  ZZO  17 1.000000
M  ZZO  18 1.000000
M  ZZO  19 1.000000
M  ZZO  20 1.000000
M  ZZO  21 1.000000
M  ZZO  22 1.000000
M  ZZO  23 1.000000
M  ZZO  24 1.000000
M  ZZO  25 1.000000
M  ZZO  26 1.000000
M  ZZO  27 1.000000
M  ZZO  28 1.000000
M  ZZO  29 1.000000
M  ZZO  30 1.000000
M  ZZO  31 1.000000
M  ZZO  32 1.000000
M  ZZO  33 1.000000
M  ZZO  34 1.000000
M  ZZO  35 1.000000
M  ZZO  36 1.000000
M  ZZO  37 1.000000
M  ZZO  38 1.000000
M  ZZO  39 1.000000
M  ZZO  40 1.000000
M  ZZO  41 1.000000
M  ZZO  42 1.000000
M  ZZO  43 1.000000
M  ZZO  44 1.000000
M  ZZO  45 1.000000
M  ZZO  46 1.000000
M  ZZO  47 1.000000
M  ZZO  48 1.000000
M  ZZO  49 1.000000
M  ZZO  50 1.000000
M  ZZM   1 5
M  ZZI   1 1
M  ZZM   2 1
M  ZZI   2 112
M  ZZM   3 5
M  ZZI   3 1
M  ZZM   4 10
M  ZZI   4 211
M  ZZM   5 28
M  ZZI   5 11
M  ZZM   6 3
M  ZZI   6 121
M  ZZM   7 7
M  ZZI   7 81
M  ZZM   8 1
M  ZZI   8 113
M  ZZM   9 11
M  ZZI   9 90
M  ZZM  10 5
M  ZZI  10 1
M  ZZM  11 1
M  ZZI  11 115
M  ZZM  12 11
M  ZZI  12 90
M  ZZM  13 11
M  ZZI  13 90
M  ZZM  14 11
M  ZZI  14 90
M  ZZM  15 1
M  ZZI  15 113
M  ZZM  16 5
M  ZZI  16 1
M  ZZM  17 1
M  ZZI  17 112
M  ZZM  18 5
M  ZZI  18 1
M  ZZM  19 5
M  ZZI  19 1
M  ZZM  20 34
M  ZZI  20 231
M  ZZM  21 36
M  ZZI  21 17
M  ZZM  22 1
M  ZZI  22 112
M  ZZM  23 5
M  ZZI  23 1
M  ZZM  24 5
M  ZZI  24 1
M  ZZM  25 1
M  ZZI  25 112
M  ZZM  26 5
M  ZZI  26 1
M  ZZM  27 5
M  ZZI  27 1
M  ZZM  28 1
M  ZZI  28 113
M  ZZM  29 5
M  ZZI  29 1
M  ZZM  30 1
M  ZZI  30 112
M  ZZM  31 5
M  ZZI  31 1
M  ZZM  32 5
M  ZZI  32 1
M  ZZM  33 10
M  ZZI  33 192
M  ZZM  34 3
M  ZZI  34 121
M  ZZM  35 7
M  ZZI  35 81
M  ZZM  36 64
M  ZZI  36 105
M  ZZM  37 65
M  ZZI  37 207
M  ZZM  38 64
M  ZZI  38 105
M  ZZM  39 5
M  ZZI  39 2
M  ZZM  40 63
M  ZZI  40 104
M  ZZM  41 3
M  ZZI  41 121
M  ZZM  42 7
M  ZZI  42 81
M  ZZM  43 10
M  ZZI  43 212
M  ZZM  44 28
M  ZZI  44 11
M  ZZM  45 28
M  ZZI  45 11
M  ZZM  46 39
M  ZZI  46 215
M  ZZM  47 1
M  ZZI  47 111
M  ZZM  48 5
M  ZZI  48 1
M  ZZM  49 5
M  ZZI  49 1
M  ZZM  50 5
M  ZZI  50 1
M  ZZQ   2 0.300000
M  ZZQ   4 -0.360000
M  ZZQ   5 0.370000
M  ZZQ   6 0.569000
M  ZZQ   7 -0.570000
M  ZZQ   8 0.401000
M  ZZQ   9 -0.340000
M  ZZQ  11 1.020000
M  ZZQ  12 -0.340000
M  ZZQ  13 -0.340000
M  ZZQ  14 -0.340000
M  ZZQ  15 0.503000
M  ZZQ  17 0.300000
M  ZZQ  20 -0.509000
M  ZZQ  21 0.450000
M  ZZQ  22 0.503000
M  ZZQ  25 0.503000
M  ZZQ  28 0.300000
M  ZZQ  33 -0.660000
M  ZZQ  34 0.716000
M  ZZQ  35 -0.570000
M  ZZQ  36 0.203000
M  ZZQ  37 -0.707000
M  ZZQ  39 0.150000
M  ZZQ  40 -0.237000
M  ZZQ  41 0.715000
M  ZZQ  42 -0.570000
M  ZZQ  43 -0.060000
M  ZZQ  44 0.370000
M  ZZQ  45 0.370000
M  ZZQ  46 0.314000
M  ZZQ  47 0.256000
M  CHG  1  20   1
M  END
> <L>
0

> <full_synton_id>
{EN_m_275592afa_11001X3438X125__s20018314_s14141172_s21837954___13}

> <smiles_synthon_s3>
s-1

> <Tox_Class>
0.

> <Tox_Score>
0.

> <molPAINS>
0.

> <orig_MEL_frag>
Cn1c(cc(C(N2CC(CNC(C(C(F)(F)F)F)=O)N3CCC2C3)=O)n1)C(N)=O

> <MW>
421.161

> <orig_Score>
-21.869756

> <orig_Score2>
23.178326

> <LogP>
-0.853

> <IX>
34831

> <NAME>
C7H13N3X2

> <Score>
-29.416212

> <Natom>
50

> <Nflex>
4

> <Hbond>
-9.570719

> <Hphob>
-6.381525

> <VwInt>
-33.766727

> <Eintl>
3.445018

> <Dsolv>
15.470955

> <SolEl>
25.408832

> <mfScore>
-148.877106

> <RTCNNscore>
-27.888823

> <dTSsc>
1.312797

> <CONF>
0

> <RecConf>
1

> <O>
13483

> <OBJECTS>
RHO_1u19_reg34831[nat=52,nre=1]

> <rxn_ID>
EN_m_275592afa_11001X3438X125

> <synton_id_1>
s20018314

> <synton_id_2>
s14141172

> <synton_id_3>
s21837954

$$$$
m
  MOLSOFT 07062520553D

 38 39  0  0  0  0  0  0  0  0999 V2000
   62.5652   10.7640   -9.2255 H   0  0  0
   61.9354   10.9551   -8.3510 C   0  0  0
   62.2601   11.8838   -7.8833 H   0  0  0
   61.9397    9.8050   -7.3667 C   0  0  0
   61.1725    9.9286   -6.5948 H   0  0  0
   63.2854    9.4622   -6.7217 C   0  0  0
   64.1828    9.7980   -7.2526 H   0  0  0
   63.3437    9.7104   -5.6603 H   0  0  0
   62.9512    8.0681   -7.0091 N   0  0  0
   61.9237    8.4001   -7.9901 C   0  0  0
   60.9857    7.8492   -7.8701 H   0  0  0
   62.2971    8.3086   -9.0157 H   0  0  0
   63.5200    6.8772   -6.6056 C   0  0  0
   64.3834    6.7986   -5.7437 O   0  0  0
   62.9815    5.6568   -7.3244 C   0  0  0
   63.3322    4.7528   -6.8170 H   0  0  0
   61.8862    5.6682   -7.3114 H   0  0  0
   63.4713    5.6949   -8.6760 O   0  0  0
   62.9920    4.5949   -9.4486 C   0  0  0
   63.3358    3.6693   -8.9807 H   0  0  0
   63.3897    4.6412  -10.4669 H   0  0  0
   61.8988    4.5913   -9.4629 H   0  0  0
   60.5542   11.1248   -8.7460 N   0  0  0
   59.9819   11.7277   -8.1706 H   0  0  0
   60.0346   10.4814   -9.8499 C   0  0  0
   60.7435    9.8087  -10.5811 O   0  0  0
   58.5986   10.6333  -10.0822 C   0  0  0
   57.7509   11.3291   -9.2315 C   0  0  0
   57.9800   11.8626   -8.3269 H   0  0  0
   56.1116   11.3194   -9.7027 S   0  0  0
   56.5057   10.4751  -11.1215 C   0  0  0
   55.7068   10.2547  -11.8155 H   0  0  0
   57.8409   10.1168  -11.2062 C   0  0  0
   58.2663    9.3430  -12.3601 C   0  0  0
   57.6629    9.3993  -13.4156 O   0  0  0
   59.3260    8.4976  -12.2177 N   0  0  0
   59.5649    7.8789  -12.9837 H   0  0  0
   59.8783    8.4221  -11.3727 H   0  0  0
  2  1  1
  2  3  1
  2  4  1
  2 23  1
  4  5  1
  4  6  1
  4 10  1
  6  7  1
  6  8  1
  6  9  1
  9 10  1
  9 13  1
 10 11  1
 10 12  1
 13 14  2
 13 15  1
 15 16  1
 15 17  1
 15 18  1
 18 19  1
 19 20  1
 19 21  1
 19 22  1
 23 24  1
 23 25  1
 25 26  2
 25 27  1
 27 28  2
 27 33  1
 28 29  1
 28 30  1
 30 31  1
 31 32  1
 31 33  2
 33 34  1
 34 35  2
 34 36  1
 36 37  1
 36 38  1
M  ZZC   1 h21
M  ZZC   2 c2
M  ZZC   3 h22
M  ZZC   4 c3
M  ZZC   5 h31
M  ZZC   6 c4
M  ZZC   7 h41
M  ZZC   8 h42
M  ZZC   9 n2
M  ZZC  10 c6
M  ZZC  11 h61
M  ZZC  12 h62
M  ZZC  13 c5
M  ZZC  14 o4
M  ZZC  15 c13
M  ZZC  16 h131
M  ZZC  17 h132
M  ZZC  18 o3
M  ZZC  19 c12
M  ZZC  20 h121
M  ZZC  21 h122
M  ZZC  22 h123
M  ZZC  23 n1
M  ZZC  24 h11
M  ZZC  25 c1
M  ZZC  26 o2
M  ZZC  27 c11
M  ZZC  28 c10
M  ZZC  29 h101
M  ZZC  30 s1
M  ZZC  31 c9
M  ZZC  32 h91
M  ZZC  33 c8
M  ZZC  34 c7
M  ZZC  35 o1
M  ZZC  36 n3
M  ZZC  37 h01
M  ZZC  38 h32
M  ZZO   1 1.000000
M  ZZO   2 1.000000
M  ZZO   3 1.000000
M  ZZO   4 1.000000
M  ZZO   5 1.000000
M  ZZO   6 1.000000
M  ZZO   7 1.000000
M  ZZO   8 1.000000
M  ZZO   9 1.000000
M  ZZO  10 1.000000
M  ZZO  11 1.000000
M  ZZO  12 1.000000
M  ZZO  13 1.000000
M  ZZO  14 1.000000
M  ZZO  15 1.000000
M  ZZO  16 1.000000
M  ZZO  17 1.000000
M  ZZO  18 1.000000
M  ZZO  19 1.000000
M  ZZO  20 1.000000
M  ZZO  21 1.000000
M  ZZO  22 1.000000
M  ZZO  23 1.000000
M  ZZO  24 1.000000
M  ZZO  25 1.000000
M  ZZO  26 1.000000
M  ZZO  27 1.000000
M  ZZO  28 1.000000
M  ZZO  29 1.000000
M  ZZO  30 1.000000
M  ZZO  31 1.000000
M  ZZO  32 1.000000
M  ZZO  33 1.000000
M  ZZO  34 1.000000
M  ZZO  35 1.000000
M  ZZO  36 1.000000
M  ZZO  37 1.000000
M  ZZO  38 1.000000
M  ZZM   1 5
M  ZZI   1 1
M  ZZM   2 1
M  ZZI   2 112
M  ZZM   3 5
M  ZZI   3 1
M  ZZM   4 20
M  ZZI   4 108
M  ZZM   5 5
M  ZZI   5 1
M  ZZM   6 20
M  ZZI   6 108
M  ZZM   7 5
M  ZZI   7 1
M  ZZM   8 5
M  ZZI   8 1
M  ZZM   9 10
M  ZZI   9 191
M  ZZM  10 20
M  ZZI  10 108
M  ZZM  11 5
M  ZZI  11 1
M  ZZM  12 5
M  ZZI  12 1
M  ZZM  13 3
M  ZZI  13 121
M  ZZM  14 7
M  ZZI  14 81
M  ZZM  15 1
M  ZZI  15 112
M  ZZM  16 5
M  ZZI  16 1
M  ZZM  17 5
M  ZZI  17 1
M  ZZM  18 6
M  ZZI  18 65
M  ZZM  19 1
M  ZZI  19 111
M  ZZM  20 5
M  ZZI  20 1
M  ZZM  21 5
M  ZZI  21 1
M  ZZM  22 5
M  ZZI  22 1
M  ZZM  23 10
M  ZZI  23 211
M  ZZM  24 28
M  ZZI  24 11
M  ZZM  25 3
M  ZZI  25 121
M  ZZM  26 7
M  ZZI  26 81
M  ZZM  27 64
M  ZZI  27 105
M  ZZM  28 63
M  ZZI  28 104
M  ZZM  29 5
M  ZZI  29 2
M  ZZM  30 44
M  ZZI  30 248
M  ZZM  31 63
M  ZZI  31 104
M  ZZM  32 5
M  ZZI  32 2
M  ZZM  33 64
M  ZZI  33 105
M  ZZM  34 3
M  ZZI  34 121
M  ZZM  35 7
M  ZZI  35 81
M  ZZM  36 10
M  ZZI  36 212
M  ZZM  37 28
M  ZZI  37 11
M  ZZM  38 28
M  ZZI  38 11
M  ZZQ   2 0.300000
M  ZZQ   6 0.225000
M  ZZQ   9 -0.510000
M  ZZQ  10 0.225000
M  ZZQ  13 0.569000
M  ZZQ  14 -0.570000
M  ZZQ  15 0.341000
M  ZZQ  18 -0.560000
M  ZZQ  19 0.280000
M  ZZQ  23 -0.360000
M  ZZQ  24 0.370000
M  ZZQ  25 0.716000
M  ZZQ  26 -0.570000
M  ZZQ  27 -0.086000
M  ZZQ  28 0.040000
M  ZZQ  29 0.150000
M  ZZQ  30 -0.080000
M  ZZQ  31 0.040000
M  ZZQ  32 0.150000
M  ZZQ  33 -0.086000
M  ZZQ  34 0.716000
M  ZZQ  35 -0.570000
M  ZZQ  36 -0.060000
M  ZZQ  37 0.370000
M  ZZQ  38 0.370000
M  END
> <L>
0

> <full_synton_id>
{EN_m_275592aea_11001X643X393__s14114808_s18992764_s13186224___12}

> <smiles_synthon_s3>
s-1

> <Tox_Class>
0.

> <Tox_Score>
0.

> <molPAINS>
0.

> <orig_MEL_frag>
COCC(N1CC(CNC(c2cscc2C(N)=O)=O)C1)=O

> <MW>
311.094

> <orig_Score>
-26.820701

> <orig_Score2>
25.065411

> <LogP>
-0.817

> <IX>
5291

> <NAME>
C4H8N2X2

> <Score>
-28.861675

> <Natom>
38

> <Nflex>
5

> <Hbond>
-6.967195

> <Hphob>
-5.658678

> <VwInt>
-28.825025

> <Eintl>
3.4665

> <Dsolv>
13.641652

> <SolEl>
9.197769

> <mfScore>
-116.083903

> <RTCNNscore>
-20.306814

> <dTSsc>
1.272768

> <CONF>
0

> <RecConf>
1

> <O>
2098

> <OBJECTS>
RHO_1u19_reg5291[nat=40,nre=1]

> <rxn_ID>
EN_m_275592aea_11001X643X393

> <synton_id_1>
s14114808

> <synton_id_2>
s18992764

> <synton_id_3>
s13186224

$$$$
m
  MOLSOFT 07062520553D

 45 47  0  0  1  0  0  0  0  0999 V2000
   61.3034    9.4835  -12.2237 H   0  0  0
   60.4619    8.7835  -12.1853 C   0  0  0
   60.4268    8.2228  -13.1250 H   0  0  0
   60.6026    7.8588  -11.0027 C   0  0  0
   60.6853    8.2884   -9.8612 O   0  0  0
   60.6045    6.5192  -11.3490 N   0  0  0
   60.2720    6.2602  -12.2727 H   0  0  0
   60.8299    5.4397  -10.4009 C   0  0  0
   59.8976    5.2816   -9.8541 H   0  0  0
   61.0429    4.5319  -10.9739 H   0  0  0
   61.9481    5.7577   -9.4723 C   0  0  0
   63.2073    5.9049   -9.9125 N   0  0  0
   61.8457    6.0133   -8.0863 C   0  0  0
   60.9594    5.9750   -7.4682 H   0  0  0
   63.0918    6.4476   -7.7121 C   0  0  0
   63.6021    6.9642   -6.4329 C   0  0  0
   64.9164    7.2907   -6.5115 F   0  0  0
   63.4845    6.0527   -5.4316 F   0  0  0
   62.9393    8.0830   -6.0369 F   0  0  0
   63.8650    6.3819   -8.8378 N   0  0  0
   64.8312    6.6708   -8.9596 H   0  0  0
   59.2358    9.5570  -12.0858 N   0  0  0
   58.2570    9.3886  -12.9886 N   0  0  0
   57.2620   10.1872  -12.6460 N   0  0  0
   58.8937   10.4861  -11.1464 C   0  0  0
   59.5447   10.7712  -10.3315 H   0  0  0
   57.6306   10.8731  -11.5271 C   0  0  0
   56.6989   11.8408  -10.9174 C   0  0  0
   57.1247   12.2984  -10.0203 H   0  0  0
   56.4689   12.6320  -11.6366 H   0  0  0
   55.3837   11.2308  -10.5476 N   0  3  0
   54.7168   11.9848  -10.3304 H   0  0  0
   54.9947   10.7995  -11.3991 H   0  0  0
   55.4402   10.2253   -9.4066 C   0  0  1
   56.3108    9.5772   -9.5448 H   0  0  0
   55.4004   10.9474   -8.0702 C   0  0  0
   55.6902   10.2760   -7.2566 H   0  0  0
   56.0359   11.8321   -8.0171 H   0  0  0
   54.1445    9.4696   -9.3549 C   0  0  0
   53.7786    9.1216  -10.3238 H   0  0  0
   54.2575    8.5948   -8.7051 H   0  0  0
   53.2206   10.4677   -8.7018 C   0  0  0
   52.7246   11.0939   -9.4510 H   0  0  0
   52.4521    9.9772   -8.1026 H   0  0  0
   54.0308   11.3117   -7.8680 O   0  0  0
  2  1  1
  2  3  1
  2  4  1
  2 22  1
  4  5  2
  4  6  1
  6  7  1
  6  8  1
  8  9  1
  8 10  1
  8 11  1
 11 12  2
 11 13  1
 12 20  1
 13 14  1
 13 15  2
 15 16  1
 15 20  1
 16 17  1
 16 18  1
 16 19  1
 20 21  1
 22 23  1
 22 25  1
 23 24  2
 24 27  1
 25 26  1
 25 27  2
 27 28  1
 28 29  1
 28 30  1
 28 31  1
 31 32  1
 31 33  1
 34 31  1
 34 35  1
 34 36  1
 34 39  1
 36 37  1
 36 38  1
 36 45  1
 39 40  1
 39 41  1
 39 42  1
 42 43  1
 42 44  1
 42 45  1
M  ZZC   1 h21
M  ZZC   2 c2
M  ZZC   3 h22
M  ZZC   4 c1
M  ZZC   5 o1
M  ZZC   6 n1
M  ZZC   7 h11
M  ZZC   8 c14
M  ZZC   9 h141
M  ZZC  10 h142
M  ZZC  11 c13
M  ZZC  12 n6
M  ZZC  13 c12
M  ZZC  14 h121
M  ZZC  15 c11
M  ZZC  16 c10
M  ZZC  17 f1
M  ZZC  18 f2
M  ZZC  19 f3
M  ZZC  20 n7
M  ZZC  21 h03
M  ZZC  22 n2
M  ZZC  23 n4
M  ZZC  24 n3
M  ZZC  25 c3
M  ZZC  26 h31
M  ZZC  27 c4
M  ZZC  28 c5
M  ZZC  29 h51
M  ZZC  30 h52
M  ZZC  31 n5
M  ZZC  32 h01
M  ZZC  33 h02
M  ZZC  34 c6
M  ZZC  35 h61
M  ZZC  36 c9
M  ZZC  37 h91
M  ZZC  38 h92
M  ZZC  39 c7
M  ZZC  40 h71
M  ZZC  41 h72
M  ZZC  42 c8
M  ZZC  43 h81
M  ZZC  44 h82
M  ZZC  45 o2
M  ZZO   1 1.000000
M  ZZO   2 1.000000
M  ZZO   3 1.000000
M  ZZO   4 1.000000
M  ZZO   5 1.000000
M  ZZO   6 1.000000
M  ZZO   7 1.000000
M  ZZO   8 1.000000
M  ZZO   9 1.000000
M  ZZO  10 1.000000
M  ZZO  11 1.000000
M  ZZO  12 1.000000
M  ZZO  13 1.000000
M  ZZO  14 1.000000
M  ZZO  15 1.000000
M  ZZO  16 1.000000
M  ZZO  17 1.000000
M  ZZO  18 1.000000
M  ZZO  19 1.000000
M  ZZO  20 1.000000
M  ZZO  21 1.000000
M  ZZO  22 1.000000
M  ZZO  23 1.000000
M  ZZO  24 1.000000
M  ZZO  25 1.000000
M  ZZO  26 1.000000
M  ZZO  27 1.000000
M  ZZO  28 1.000000
M  ZZO  29 1.000000
M  ZZO  30 1.000000
M  ZZO  31 1.000000
M  ZZO  32 1.000000
M  ZZO  33 1.000000
M  ZZO  34 1.000000
M  ZZO  35 1.000000
M  ZZO  36 1.000000
M  ZZO  37 1.000000
M  ZZO  38 1.000000
M  ZZO  39 1.000000
M  ZZO  40 1.000000
M  ZZO  41 1.000000
M  ZZO  42 1.000000
M  ZZO  43 1.000000
M  ZZO  44 1.000000
M  ZZO  45 1.000000
M  ZZM   1 5
M  ZZI   1 1
M  ZZM   2 1
M  ZZI   2 112
M  ZZM   3 5
M  ZZI   3 1
M  ZZM   4 3
M  ZZI   4 121
M  ZZM   5 7
M  ZZI   5 81
M  ZZM   6 10
M  ZZI   6 211
M  ZZM   7 28
M  ZZI   7 11
M  ZZM   8 1
M  ZZI   8 112
M  ZZM   9 5
M  ZZI   9 1
M  ZZM  10 5
M  ZZI  10 1
M  ZZM  11 64
M  ZZI  11 105
M  ZZM  12 65
M  ZZI  12 207
M  ZZM  13 64
M  ZZI  13 105
M  ZZM  14 5
M  ZZI  14 2
M  ZZM  15 63
M  ZZI  15 104
M  ZZM  16 1
M  ZZI  16 115
M  ZZM  17 11
M  ZZI  17 90
M  ZZM  18 11
M  ZZI  18 90
M  ZZM  19 11
M  ZZI  19 90
M  ZZM  20 39
M  ZZI  20 215
M  ZZM  21 23
M  ZZI  21 10
M  ZZM  22 39
M  ZZI  22 215
M  ZZM  23 65
M  ZZI  23 207
M  ZZM  24 66
M  ZZI  24 222
M  ZZM  25 63
M  ZZI  25 104
M  ZZM  26 5
M  ZZI  26 2
M  ZZM  27 64
M  ZZI  27 105
M  ZZM  28 1
M  ZZI  28 112
M  ZZM  29 5
M  ZZI  29 1
M  ZZM  30 5
M  ZZI  30 1
M  ZZM  31 34
M  ZZI  31 231
M  ZZM  32 36
M  ZZI  32 17
M  ZZM  33 36
M  ZZI  33 17
M  ZZM  34 1
M  ZZI  34 113
M  ZZM  35 5
M  ZZI  35 1
M  ZZM  36 1
M  ZZI  36 112
M  ZZM  37 5
M  ZZI  37 1
M  ZZM  38 5
M  ZZI  38 1
M  ZZM  39 1
M  ZZI  39 112
M  ZZM  40 5
M  ZZI  40 1
M  ZZM  41 5
M  ZZI  41 1
M  ZZM  42 1
M  ZZI  42 112
M  ZZM  43 5
M  ZZI  43 1
M  ZZM  44 5
M  ZZI  44 1
M  ZZM  45 6
M  ZZI  45 65
M  ZZQ   2 0.317000
M  ZZQ   4 0.569000
M  ZZQ   5 -0.570000
M  ZZQ   6 -0.360000
M  ZZQ   7 0.370000
M  ZZQ   8 0.481000
M  ZZQ  11 0.108000
M  ZZQ  12 -0.707000
M  ZZQ  14 0.150000
M  ZZQ  15 -0.332000
M  ZZQ  16 1.200000
M  ZZQ  17 -0.340000
M  ZZQ  18 -0.340000
M  ZZQ  19 -0.340000
M  ZZQ  20 0.570000
M  ZZQ  21 0.270000
M  ZZQ  22 0.314000
M  ZZQ  23 -0.418000
M  ZZQ  24 -0.227000
M  ZZQ  25 -0.152000
M  ZZQ  26 0.150000
M  ZZQ  27 0.046000
M  ZZQ  28 0.684000
M  ZZQ  31 -0.006000
M  ZZQ  32 0.450000
M  ZZQ  33 0.450000
M  ZZQ  34 0.503000
M  ZZQ  36 0.280000
M  ZZQ  42 0.280000
M  ZZQ  45 -0.560000
M  CHG  1  31   1
M  END
> <L>
0

> <full_synton_id>
{EN_m_274860bbb_27X1058X16831__s12536600_s15233834_s17154842___12}

> <smiles_synthon_s3>
s-1

> <Tox_Class>
0.

> <Tox_Score>
0.

> <molPAINS>
0.

> <orig_MEL_frag>
C1COCC1NCc1cn(CC(NCc2cc(C(F)(F)F)[nH]n2)=O)nn1

> <MW>
374.155

> <orig_Score>
-16.954508

> <orig_Score2>
21.341984

> <LogP>
-0.065

> <IX>
30053

> <NAME>
C4H3N3OX2

> <Score>
-28.402738

> <Natom>
45

> <Nflex>
7

> <Hbond>
-11.142545

> <Hphob>
-5.97991

> <VwInt>
-31.335155

> <Eintl>
11.082489

> <Dsolv>
17.721815

> <SolEl>
16.649609

> <mfScore>
-162.702544

> <RTCNNscore>
-19.878972

> <dTSsc>
1.31593

> <CONF>
0

> <RecConf>
1

> <O>
18473

> <OBJECTS>
RHO_1u19_reg30053[nat=47,nre=1]

> <rxn_ID>
EN_m_274860bbb_27X1058X16831

> <synton_id_1>
s12536600

> <synton_id_2>
s15233834

> <synton_id_3>
s17154842

$$$$
m
  MOLSOFT 07062520553D

 38 39  0  0  0  0  0  0  0  0999 V2000
   62.5628   10.7249   -9.2887 H   0  0  0
   61.9657   10.9347   -8.3952 C   0  0  0
   62.3033   11.8775   -7.9654 H   0  0  0
   62.0327    9.8129   -7.3814 C   0  0  0
   61.4373   10.0362   -6.4877 H   0  0  0
   63.4428    9.3454   -7.0001 C   0  0  0
   64.2343    9.5257   -7.7353 H   0  0  0
   63.7715    9.6405   -6.0024 H   0  0  0
   62.8955    7.9929   -7.0890 N   0  0  0
   61.7642    8.3973   -7.9167 C   0  0  0
   60.8037    7.9623   -7.6300 H   0  0  0
   61.9597    8.2252   -8.9800 H   0  0  0
   63.3976    6.7742   -6.6844 C   0  0  0
   64.4346    6.6620   -6.0475 O   0  0  0
   62.5652    5.5745   -7.0959 C   0  0  0
   62.7166    4.7829   -6.3554 H   0  0  0
   61.5002    5.8259   -7.0714 H   0  0  0
   62.9881    5.0863   -8.4508 C   0  0  0
   63.9851    4.6741   -8.5437 H   0  0  0
   62.2067    5.1094   -9.5368 C   0  0  0
   61.1957    5.5000   -9.5060 H   0  0  0
   62.5734    4.7347  -10.4853 H   0  0  0
   60.5678   11.0827   -8.7400 N   0  0  0
   59.9923   11.6262   -8.1113 H   0  0  0
   60.0428   10.4928   -9.8718 C   0  0  0
   60.7523    9.8700  -10.6457 O   0  0  0
   58.6030   10.6339  -10.0821 C   0  0  0
   57.7619   11.3323   -9.2277 C   0  0  0
   57.9986   11.8742   -8.3301 H   0  0  0
   56.1184   11.3149   -9.6830 S   0  0  0
   56.5017   10.4696  -11.1050 C   0  0  0
   55.6970   10.2436  -11.7907 H   0  0  0
   57.8367   10.1125  -11.1984 C   0  0  0
   58.2543    9.3324  -12.3511 C   0  0  0
   57.6413    9.3799  -13.4017 O   0  0  0
   59.3215    8.4953  -12.2126 N   0  0  0
   59.5585    7.8740  -12.9772 H   0  0  0
   59.8837    8.4317  -11.3733 H   0  0  0
  2  1  1
  2  3  1
  2  4  1
  2 23  1
  4  5  1
  4  6  1
  4 10  1
  6  7  1
  6  8  1
  6  9  1
  9 10  1
  9 13  1
 10 11  1
 10 12  1
 13 14  2
 13 15  1
 15 16  1
 15 17  1
 15 18  1
 18 19  1
 18 20  2
 20 21  1
 20 22  1
 23 24  1
 23 25  1
 25 26  2
 25 27  1
 27 28  2
 27 33  1
 28 29  1
 28 30  1
 30 31  1
 31 32  1
 31 33  2
 33 34  1
 34 35  2
 34 36  1
 36 37  1
 36 38  1
M  ZZC   1 h21
M  ZZC   2 c2
M  ZZC   3 h22
M  ZZC   4 c3
M  ZZC   5 h31
M  ZZC   6 c4
M  ZZC   7 h41
M  ZZC   8 h42
M  ZZC   9 n2
M  ZZC  10 c6
M  ZZC  11 h61
M  ZZC  12 h62
M  ZZC  13 c5
M  ZZC  14 o3
M  ZZC  15 c14
M  ZZC  16 h141
M  ZZC  17 h142
M  ZZC  18 c13
M  ZZC  19 h131
M  ZZC  20 c12
M  ZZC  21 h121
M  ZZC  22 h122
M  ZZC  23 n1
M  ZZC  24 h11
M  ZZC  25 c1
M  ZZC  26 o2
M  ZZC  27 c11
M  ZZC  28 c10
M  ZZC  29 h101
M  ZZC  30 s1
M  ZZC  31 c9
M  ZZC  32 h91
M  ZZC  33 c8
M  ZZC  34 c7
M  ZZC  35 o1
M  ZZC  36 n3
M  ZZC  37 h01
M  ZZC  38 h32
M  ZZO   1 1.000000
M  ZZO   2 1.000000
M  ZZO   3 1.000000
M  ZZO   4 1.000000
M  ZZO   5 1.000000
M  ZZO   6 1.000000
M  ZZO   7 1.000000
M  ZZO   8 1.000000
M  ZZO   9 1.000000
M  ZZO  10 1.000000
M  ZZO  11 1.000000
M  ZZO  12 1.000000
M  ZZO  13 1.000000
M  ZZO  14 1.000000
M  ZZO  15 1.000000
M  ZZO  16 1.000000
M  ZZO  17 1.000000
M  ZZO  18 1.000000
M  ZZO  19 1.000000
M  ZZO  20 1.000000
M  ZZO  21 1.000000
M  ZZO  22 1.000000
M  ZZO  23 1.000000
M  ZZO  24 1.000000
M  ZZO  25 1.000000
M  ZZO  26 1.000000
M  ZZO  27 1.000000
M  ZZO  28 1.000000
M  ZZO  29 1.000000
M  ZZO  30 1.000000
M  ZZO  31 1.000000
M  ZZO  32 1.000000
M  ZZO  33 1.000000
M  ZZO  34 1.000000
M  ZZO  35 1.000000
M  ZZO  36 1.000000
M  ZZO  37 1.000000
M  ZZO  38 1.000000
M  ZZM   1 5
M  ZZI   1 1
M  ZZM   2 1
M  ZZI   2 112
M  ZZM   3 5
M  ZZI   3 1
M  ZZM   4 20
M  ZZI   4 108
M  ZZM   5 5
M  ZZI   5 1
M  ZZM   6 20
M  ZZI   6 108
M  ZZM   7 5
M  ZZI   7 1
M  ZZM   8 5
M  ZZI   8 1
M  ZZM   9 10
M  ZZI   9 191
M  ZZM  10 20
M  ZZI  10 108
M  ZZM  11 5
M  ZZI  11 1
M  ZZM  12 5
M  ZZI  12 1
M  ZZM  13 3
M  ZZI  13 121
M  ZZM  14 7
M  ZZI  14 81
M  ZZM  15 1
M  ZZI  15 112
M  ZZM  16 5
M  ZZI  16 1
M  ZZM  17 5
M  ZZI  17 1
M  ZZM  18 2
M  ZZI  18 120
M  ZZM  19 5
M  ZZI  19 2
M  ZZM  20 2
M  ZZI  20 120
M  ZZM  21 5
M  ZZI  21 2
M  ZZM  22 5
M  ZZI  22 2
M  ZZM  23 10
M  ZZI  23 211
M  ZZM  24 28
M  ZZI  24 11
M  ZZM  25 3
M  ZZI  25 121
M  ZZM  26 7
M  ZZI  26 81
M  ZZM  27 64
M  ZZI  27 105
M  ZZM  28 63
M  ZZI  28 104
M  ZZM  29 5
M  ZZI  29 2
M  ZZM  30 44
M  ZZI  30 248
M  ZZM  31 63
M  ZZI  31 104
M  ZZM  32 5
M  ZZI  32 2
M  ZZM  33 64
M  ZZI  33 105
M  ZZM  34 3
M  ZZI  34 121
M  ZZM  35 7
M  ZZI  35 81
M  ZZM  36 10
M  ZZI  36 212
M  ZZM  37 28
M  ZZI  37 11
M  ZZM  38 28
M  ZZI  38 11
M  ZZQ   2 0.300000
M  ZZQ   6 0.225000
M  ZZQ   9 -0.510000
M  ZZQ  10 0.225000
M  ZZQ  13 0.569000
M  ZZQ  14 -0.570000
M  ZZQ  15 0.199000
M  ZZQ  18 -0.138000
M  ZZQ  19 0.150000
M  ZZQ  21 0.150000
M  ZZQ  22 0.150000
M  ZZQ  23 -0.360000
M  ZZQ  24 0.370000
M  ZZQ  25 0.716000
M  ZZQ  26 -0.570000
M  ZZQ  27 -0.086000
M  ZZQ  28 0.040000
M  ZZQ  29 0.150000
M  ZZQ  30 -0.080000
M  ZZQ  31 0.040000
M  ZZQ  32 0.150000
M  ZZQ  33 -0.086000
M  ZZQ  34 0.716000
M  ZZQ  35 -0.570000
M  ZZQ  36 -0.060000
M  ZZQ  37 0.370000
M  ZZQ  38 0.370000
M  END
> <L>
0

> <full_synton_id>
{EN_m_275592aea_11001X643X393__s14114808_s18992764_s15855634___12}

> <smiles_synthon_s3>
s-1

> <Tox_Class>
0.

> <Tox_Score>
0.

> <molPAINS>
0.

> <orig_MEL_frag>
C=CCC(N1CC(CNC(c2cscc2C(N)=O)=O)C1)=O

> <MW>
307.099

> <orig_Score>
-26.820701

> <orig_Score2>
25.065411

> <LogP>
0.283

> <IX>
3649

> <NAME>
C4H8N2X2

> <Score>
-28.371456

> <Natom>
38

> <Nflex>
5

> <Hbond>
-5.52384

> <Hphob>
-5.38604

> <VwInt>
-28.953195

> <Eintl>
3.159318

> <Dsolv>
11.072159

> <SolEl>
7.524231

> <mfScore>
-108.85212

> <RTCNNscore>
-18.587616

> <dTSsc>
1.279031

> <CONF>
0

> <RecConf>
1

> <O>
2038

> <OBJECTS>
RHO_1u19_reg3649[nat=40,nre=1]

> <rxn_ID>
EN_m_275592aea_11001X643X393

> <synton_id_1>
s14114808

> <synton_id_2>
s18992764

> <synton_id_3>
s15855634

$$$$
m
  MOLSOFT 07062520553D

 41 42  0  0  0  0  0  0  0  0999 V2000
   62.4727   10.8629   -9.2687 H   0  0  0
   61.8663   11.0725   -8.3824 C   0  0  0
   62.1596   12.0436   -7.9853 H   0  0  0
   61.9777    9.9861   -7.3343 C   0  0  0
   61.2644   10.1120   -6.5128 H   0  0  0
   63.3933    9.7589   -6.7928 C   0  0  0
   64.2107   10.2418   -7.3385 H   0  0  0
   63.4920    9.9313   -5.7192 H   0  0  0
   63.2233    8.3580   -7.1624 N   0  0  0
   61.9753    8.5562   -7.8927 C   0  0  0
   61.1567    7.9201   -7.5419 H   0  0  0
   62.1072    8.4522   -8.9739 H   0  0  0
   63.9961    7.2469   -6.9146 C   0  0  0
   64.9769    7.2164   -6.1890 O   0  0  0
   63.5174    6.0205   -7.5980 C   0  0  0
   62.9264    4.9914   -6.6974 C   0  0  0
   62.9955    3.9883   -7.1175 H   0  0  0
   61.8749    5.2223   -6.5262 H   0  0  0
   63.4287    4.9723   -5.7260 H   0  0  0
   63.6870    5.9549   -8.9335 C   0  0  0
   64.1498    6.7948   -9.4453 H   0  0  0
   63.2727    4.8348   -9.8271 C   0  0  0
   64.0768    4.6203  -10.5343 H   0  0  0
   62.3827    5.1109  -10.3993 H   0  0  0
   63.0790    3.9062   -9.2865 H   0  0  0
   60.4660   11.1514   -8.7296 N   0  0  0
   59.8766   11.7092   -8.1272 H   0  0  0
   59.9590   10.5182   -9.8452 C   0  0  0
   60.6811    9.8783  -10.5928 O   0  0  0
   58.5204   10.6457  -10.0747 C   0  0  0
   57.6622   11.3311   -9.2260 C   0  0  0
   57.8818   11.8630   -8.3183 H   0  0  0
   56.0251   11.3047   -9.7062 S   0  0  0
   56.4342   10.4610  -11.1218 C   0  0  0
   55.6381   10.2205  -11.8124 H   0  0  0
   57.7738   10.1186  -11.2015 C   0  0  0
   58.2176    9.3527  -12.3541 C   0  0  0
   57.6215    9.4014  -13.4146 O   0  0  0
   59.2860    8.5190  -12.2040 N   0  0  0
   59.5393    7.9050  -12.9691 H   0  0  0
   59.8435    8.4610  -11.3612 H   0  0  0
  2  1  1
  2  3  1
  2  4  1
  2 26  1
  4  5  1
  4  6  1
  4 10  1
  6  7  1
  6  8  1
  6  9  1
  9 10  1
  9 13  1
 10 11  1
 10 12  1
 13 14  2
 13 15  1
 15 16  1
 15 20  2
 16 17  1
 16 18  1
 16 19  1
 20 21  1
 20 22  1
 22 23  1
 22 24  1
 22 25  1
 26 27  1
 26 28  1
 28 29  2
 28 30  1
 30 31  2
 30 36  1
 31 32  1
 31 33  1
 33 34  1
 34 35  1
 34 36  2
 36 37  1
 37 38  2
 37 39  1
 39 40  1
 39 41  1
M  ZZC   1 h21
M  ZZC   2 c2
M  ZZC   3 h22
M  ZZC   4 c3
M  ZZC   5 h31
M  ZZC   6 c4
M  ZZC   7 h41
M  ZZC   8 h42
M  ZZC   9 n2
M  ZZC  10 c6
M  ZZC  11 h61
M  ZZC  12 h62
M  ZZC  13 c5
M  ZZC  14 o3
M  ZZC  15 c14
M  ZZC  16 c15
M  ZZC  17 h151
M  ZZC  18 h152
M  ZZC  19 h153
M  ZZC  20 c13
M  ZZC  21 h131
M  ZZC  22 c12
M  ZZC  23 h121
M  ZZC  24 h122
M  ZZC  25 h123
M  ZZC  26 n1
M  ZZC  27 h11
M  ZZC  28 c1
M  ZZC  29 o2
M  ZZC  30 c11
M  ZZC  31 c10
M  ZZC  32 h101
M  ZZC  33 s1
M  ZZC  34 c9
M  ZZC  35 h91
M  ZZC  36 c8
M  ZZC  37 c7
M  ZZC  38 o1
M  ZZC  39 n3
M  ZZC  40 h01
M  ZZC  41 h32
M  ZZO   1 1.000000
M  ZZO   2 1.000000
M  ZZO   3 1.000000
M  ZZO   4 1.000000
M  ZZO   5 1.000000
M  ZZO   6 1.000000
M  ZZO   7 1.000000
M  ZZO   8 1.000000
M  ZZO   9 1.000000
M  ZZO  10 1.000000
M  ZZO  11 1.000000
M  ZZO  12 1.000000
M  ZZO  13 1.000000
M  ZZO  14 1.000000
M  ZZO  15 1.000000
M  ZZO  16 1.000000
M  ZZO  17 1.000000
M  ZZO  18 1.000000
M  ZZO  19 1.000000
M  ZZO  20 1.000000
M  ZZO  21 1.000000
M  ZZO  22 1.000000
M  ZZO  23 1.000000
M  ZZO  24 1.000000
M  ZZO  25 1.000000
M  ZZO  26 1.000000
M  ZZO  27 1.000000
M  ZZO  28 1.000000
M  ZZO  29 1.000000
M  ZZO  30 1.000000
M  ZZO  31 1.000000
M  ZZO  32 1.000000
M  ZZO  33 1.000000
M  ZZO  34 1.000000
M  ZZO  35 1.000000
M  ZZO  36 1.000000
M  ZZO  37 1.000000
M  ZZO  38 1.000000
M  ZZO  39 1.000000
M  ZZO  40 1.000000
M  ZZO  41 1.000000
M  ZZM   1 5
M  ZZI   1 1
M  ZZM   2 1
M  ZZI   2 112
M  ZZM   3 5
M  ZZI   3 1
M  ZZM   4 20
M  ZZI   4 108
M  ZZM   5 5
M  ZZI   5 1
M  ZZM   6 20
M  ZZI   6 108
M  ZZM   7 5
M  ZZI   7 1
M  ZZM   8 5
M  ZZI   8 1
M  ZZM   9 10
M  ZZI   9 191
M  ZZM  10 20
M  ZZI  10 108
M  ZZM  11 5
M  ZZI  11 1
M  ZZM  12 5
M  ZZI  12 1
M  ZZM  13 3
M  ZZI  13 121
M  ZZM  14 7
M  ZZI  14 81
M  ZZM  15 2
M  ZZI  15 120
M  ZZM  16 1
M  ZZI  16 111
M  ZZM  17 5
M  ZZI  17 1
M  ZZM  18 5
M  ZZI  18 1
M  ZZM  19 5
M  ZZI  19 1
M  ZZM  20 2
M  ZZI  20 120
M  ZZM  21 5
M  ZZI  21 2
M  ZZM  22 1
M  ZZI  22 111
M  ZZM  23 5
M  ZZI  23 1
M  ZZM  24 5
M  ZZI  24 1
M  ZZM  25 5
M  ZZI  25 1
M  ZZM  26 10
M  ZZI  26 211
M  ZZM  27 28
M  ZZI  27 11
M  ZZM  28 3
M  ZZI  28 121
M  ZZM  29 7
M  ZZI  29 81
M  ZZM  30 64
M  ZZI  30 105
M  ZZM  31 63
M  ZZI  31 104
M  ZZM  32 5
M  ZZI  32 2
M  ZZM  33 44
M  ZZI  33 248
M  ZZM  34 63
M  ZZI  34 104
M  ZZM  35 5
M  ZZI  35 2
M  ZZM  36 64
M  ZZI  36 105
M  ZZM  37 3
M  ZZI  37 121
M  ZZM  38 7
M  ZZI  38 81
M  ZZM  39 10
M  ZZI  39 212
M  ZZM  40 28
M  ZZI  40 11
M  ZZM  41 28
M  ZZI  41 11
M  ZZQ   2 0.300000
M  ZZQ   6 0.225000
M  ZZQ   9 -0.510000
M  ZZQ  10 0.225000
M  ZZQ  13 0.616000
M  ZZQ  14 -0.570000
M  ZZQ  15 -0.124000
M  ZZQ  16 0.138000
M  ZZQ  20 -0.138000
M  ZZQ  21 0.150000
M  ZZQ  22 0.138000
M  ZZQ  26 -0.360000
M  ZZQ  27 0.370000
M  ZZQ  28 0.716000
M  ZZQ  29 -0.570000
M  ZZQ  30 -0.086000
M  ZZQ  31 0.040000
M  ZZQ  32 0.150000
M  ZZQ  33 -0.080000
M  ZZQ  34 0.040000
M  ZZQ  35 0.150000
M  ZZQ  36 -0.086000
M  ZZQ  37 0.716000
M  ZZQ  38 -0.570000
M  ZZQ  39 -0.060000
M  ZZQ  40 0.370000
M  ZZQ  41 0.370000
M  END
> <L>
0

> <full_synton_id>
{EN_m_275592aea_11001X643X393__s14114808_s18992764_s21843932___12}

> <smiles_synthon_s3>
s-1

> <Tox_Class>
0.

> <Tox_Score>
0.

> <molPAINS>
0.

> <orig_MEL_frag>
CC=C(C)C(N1CC(CNC(c2cscc2C(N)=O)=O)C1)=O

> <MW>
321.115

> <orig_Score>
-26.820701

> <orig_Score2>
25.065411

> <LogP>
0.791

> <IX>
4608

> <NAME>
C4H8N2X2

> <Score>
-28.277641

> <Natom>
41

> <Nflex>
3

> <Hbond>
-6.854511

> <Hphob>
-6.173755

> <VwInt>
-28.45202

> <Eintl>
3.976617

> <Dsolv>
12.379536

> <SolEl>
12.397097

> <mfScore>
-105.10815

> <RTCNNscore>
-23.580739

> <dTSsc>
1.285631

> <CONF>
0

> <RecConf>
1

> <O>
2081

> <OBJECTS>
RHO_1u19_reg4608[nat=43,nre=1]

> <rxn_ID>
EN_m_275592aea_11001X643X393

> <synton_id_1>
s14114808

> <synton_id_2>
s18992764

> <synton_id_3>
s21843932

$$$$
m
  MOLSOFT 07062520553D

 41 42  0  0  0  0  0  0  0  0999 V2000
   62.5649   10.7667   -9.2189 H   0  0  0
   61.9314   10.9632   -8.3477 C   0  0  0
   62.2573   11.8928   -7.8825 H   0  0  0
   61.9287    9.8167   -7.3599 C   0  0  0
   61.1684    9.9507   -6.5829 H   0  0  0
   63.2740    9.4560   -6.7233 C   0  0  0
   64.1723    9.7869   -7.2558 H   0  0  0
   63.3398    9.6940   -5.6602 H   0  0  0
   62.9248    8.0671   -7.0186 N   0  0  0
   61.8893    8.4141   -7.9854 C   0  0  0
   60.9476    7.8719   -7.8553 H   0  0  0
   62.2484    8.3228   -9.0159 H   0  0  0
   63.5229    6.8718   -6.6751 C   0  0  0
   64.4056    6.7743   -5.8347 O   0  0  0
   62.9854    5.6748   -7.4333 C   0  0  0
   63.3598    4.7551   -6.9744 H   0  0  0
   61.8923    5.6723   -7.3852 H   0  0  0
   63.4542    5.7807   -8.7918 O   0  0  0
   62.9325    4.7677   -9.6601 C   0  0  0
   62.9734    3.7920   -9.1692 H   0  0  0
   63.5950    4.7183  -10.5283 H   0  0  0
   61.5289    5.1142  -10.1320 C   0  0  0
   60.8215    5.1490   -9.3002 H   0  0  0
   61.1685    4.3798  -10.8575 H   0  0  0
   61.5134    6.1033  -10.5989 H   0  0  0
   60.5517   11.1339   -8.7467 N   0  0  0
   59.9766   11.7335   -8.1706 H   0  0  0
   60.0348   10.4925   -9.8531 C   0  0  0
   60.7454    9.8244  -10.5869 O   0  0  0
   58.5982   10.6389  -10.0840 C   0  0  0
   57.7488   11.3360   -9.2364 C   0  0  0
   57.9758   11.8712   -8.3324 H   0  0  0
   56.1092   11.3179   -9.7072 S   0  0  0
   56.5063   10.4727  -11.1248 C   0  0  0
   55.7077   10.2457  -11.8173 H   0  0  0
   57.8417   10.1156  -11.2073 C   0  0  0
   58.2696    9.3349  -12.3555 C   0  0  0
   57.6673    9.3835  -13.4122 O   0  0  0
   59.3305    8.4918  -12.2064 N   0  0  0
   59.5709    7.8674  -12.9672 H   0  0  0
   59.8767    8.4191  -11.3572 H   0  0  0
  2  1  1
  2  3  1
  2  4  1
  2 26  1
  4  5  1
  4  6  1
  4 10  1
  6  7  1
  6  8  1
  6  9  1
  9 10  1
  9 13  1
 10 11  1
 10 12  1
 13 14  2
 13 15  1
 15 16  1
 15 17  1
 15 18  1
 18 19  1
 19 20  1
 19 21  1
 19 22  1
 22 23  1
 22 24  1
 22 25  1
 26 27  1
 26 28  1
 28 29  2
 28 30  1
 30 31  2
 30 36  1
 31 32  1
 31 33  1
 33 34  1
 34 35  1
 34 36  2
 36 37  1
 37 38  2
 37 39  1
 39 40  1
 39 41  1
M  ZZC   1 h21
M  ZZC   2 c2
M  ZZC   3 h22
M  ZZC   4 c3
M  ZZC   5 h31
M  ZZC   6 c4
M  ZZC   7 h41
M  ZZC   8 h42
M  ZZC   9 n2
M  ZZC  10 c6
M  ZZC  11 h61
M  ZZC  12 h62
M  ZZC  13 c5
M  ZZC  14 o4
M  ZZC  15 c14
M  ZZC  16 h141
M  ZZC  17 h142
M  ZZC  18 o3
M  ZZC  19 c13
M  ZZC  20 h131
M  ZZC  21 h132
M  ZZC  22 c12
M  ZZC  23 h121
M  ZZC  24 h122
M  ZZC  25 h123
M  ZZC  26 n1
M  ZZC  27 h11
M  ZZC  28 c1
M  ZZC  29 o2
M  ZZC  30 c11
M  ZZC  31 c10
M  ZZC  32 h101
M  ZZC  33 s1
M  ZZC  34 c9
M  ZZC  35 h91
M  ZZC  36 c8
M  ZZC  37 c7
M  ZZC  38 o1
M  ZZC  39 n3
M  ZZC  40 h01
M  ZZC  41 h32
M  ZZO   1 1.000000
M  ZZO   2 1.000000
M  ZZO   3 1.000000
M  ZZO   4 1.000000
M  ZZO   5 1.000000
M  ZZO   6 1.000000
M  ZZO   7 1.000000
M  ZZO   8 1.000000
M  ZZO   9 1.000000
M  ZZO  10 1.000000
M  ZZO  11 1.000000
M  ZZO  12 1.000000
M  ZZO  13 1.000000
M  ZZO  14 1.000000
M  ZZO  15 1.000000
M  ZZO  16 1.000000
M  ZZO  17 1.000000
M  ZZO  18 1.000000
M  ZZO  19 1.000000
M  ZZO  20 1.000000
M  ZZO  21 1.000000
M  ZZO  22 1.000000
M  ZZO  23 1.000000
M  ZZO  24 1.000000
M  ZZO  25 1.000000
M  ZZO  26 1.000000
M  ZZO  27 1.000000
M  ZZO  28 1.000000
M  ZZO  29 1.000000
M  ZZO  30 1.000000
M  ZZO  31 1.000000
M  ZZO  32 1.000000
M  ZZO  33 1.000000
M  ZZO  34 1.000000
M  ZZO  35 1.000000
M  ZZO  36 1.000000
M  ZZO  37 1.000000
M  ZZO  38 1.000000
M  ZZO  39 1.000000
M  ZZO  40 1.000000
M  ZZO  41 1.000000
M  ZZM   1 5
M  ZZI   1 1
M  ZZM   2 1
M  ZZI   2 112
M  ZZM   3 5
M  ZZI   3 1
M  ZZM   4 20
M  ZZI   4 108
M  ZZM   5 5
M  ZZI   5 1
M  ZZM   6 20
M  ZZI   6 108
M  ZZM   7 5
M  ZZI   7 1
M  ZZM   8 5
M  ZZI   8 1
M  ZZM   9 10
M  ZZI   9 191
M  ZZM  10 20
M  ZZI  10 108
M  ZZM  11 5
M  ZZI  11 1
M  ZZM  12 5
M  ZZI  12 1
M  ZZM  13 3
M  ZZI  13 121
M  ZZM  14 7
M  ZZI  14 81
M  ZZM  15 1
M  ZZI  15 112
M  ZZM  16 5
M  ZZI  16 1
M  ZZM  17 5
M  ZZI  17 1
M  ZZM  18 6
M  ZZI  18 65
M  ZZM  19 1
M  ZZI  19 112
M  ZZM  20 5
M  ZZI  20 1
M  ZZM  21 5
M  ZZI  21 1
M  ZZM  22 1
M  ZZI  22 111
M  ZZM  23 5
M  ZZI  23 1
M  ZZM  24 5
M  ZZI  24 1
M  ZZM  25 5
M  ZZI  25 1
M  ZZM  26 10
M  ZZI  26 211
M  ZZM  27 28
M  ZZI  27 11
M  ZZM  28 3
M  ZZI  28 121
M  ZZM  29 7
M  ZZI  29 81
M  ZZM  30 64
M  ZZI  30 105
M  ZZM  31 63
M  ZZI  31 104
M  ZZM  32 5
M  ZZI  32 2
M  ZZM  33 44
M  ZZI  33 248
M  ZZM  34 63
M  ZZI  34 104
M  ZZM  35 5
M  ZZI  35 2
M  ZZM  36 64
M  ZZI  36 105
M  ZZM  37 3
M  ZZI  37 121
M  ZZM  38 7
M  ZZI  38 81
M  ZZM  39 10
M  ZZI  39 212
M  ZZM  40 28
M  ZZI  40 11
M  ZZM  41 28
M  ZZI  41 11
M  ZZQ   2 0.300000
M  ZZQ   6 0.225000
M  ZZQ   9 -0.510000
M  ZZQ  10 0.225000
M  ZZQ  13 0.569000
M  ZZQ  14 -0.570000
M  ZZQ  15 0.341000
M  ZZQ  18 -0.560000
M  ZZQ  19 0.280000
M  ZZQ  26 -0.360000
M  ZZQ  27 0.370000
M  ZZQ  28 0.716000
M  ZZQ  29 -0.570000
M  ZZQ  30 -0.086000
M  ZZQ  31 0.040000
M  ZZQ  32 0.150000
M  ZZQ  33 -0.080000
M  ZZQ  34 0.040000
M  ZZQ  35 0.150000
M  ZZQ  36 -0.086000
M  ZZQ  37 0.716000
M  ZZQ  38 -0.570000
M  ZZQ  39 -0.060000
M  ZZQ  40 0.370000
M  ZZQ  41 0.370000
M  END
> <L>
0

> <full_synton_id>
{EN_m_275592aea_11001X643X393__s14114808_s18992764_s13186276___12}

> <smiles_synthon_s3>
s-1

> <Tox_Class>
0.

> <Tox_Score>
0.

> <molPAINS>
0.

> <orig_MEL_frag>
CCOCC(N1CC(CNC(c2cscc2C(N)=O)=O)C1)=O

> <MW>
325.11

> <orig_Score>
-26.820701

> <orig_Score2>
25.065411

> <LogP>
-0.427

> <IX>
4763

> <NAME>
C4H8N2X2

> <Score>
-28.104908

> <Natom>
41

> <Nflex>
6

> <Hbond>
-6.95741

> <Hphob>
-6.050229

> <VwInt>
-30.661535

> <Eintl>
4.916325

> <Dsolv>
13.609458

> <SolEl>
11.296421

> <mfScore>
-125.755938

> <RTCNNscore>
-21.303305

> <dTSsc>
1.280681

> <CONF>
0

> <RecConf>
1

> <O>
2087

> <OBJECTS>
RHO_1u19_reg4763[nat=43,nre=1]

> <rxn_ID>
EN_m_275592aea_11001X643X393

> <synton_id_1>
s14114808

> <synton_id_2>
s18992764

> <synton_id_3>
s13186276

$$$$
