m
  MOLSOFT 07062520553D

 48 50  0  0  0  0  0  0  0  0999 V2000
   58.9345   10.8359   -9.4586 H   0  0  0
   59.5500    9.9664   -9.7051 C   0  0  0
   59.1166    9.0942   -9.2101 H   0  0  0
   60.9486   10.1857   -9.1423 C   0  0  0
   61.3889   11.1267   -9.4882 H   0  0  0
   60.9276   10.1816   -8.0480 H   0  0  0
   61.8391    9.0655   -9.6034 N   0  3  0
   61.3831    8.1728   -9.3460 H   0  0  0
   63.1718    9.0491   -8.8959 C   0  0  0
   63.9515    9.0172   -9.6647 H   0  0  0
   63.2841   10.0133   -8.3866 H   0  0  0
   63.3637    7.8878   -7.9474 C   0  0  0
   62.6552    7.9357   -6.6102 C   0  0  0
   62.0317    8.7860   -6.3629 H   0  0  0
   62.3142    7.0040   -6.1778 H   0  0  0
   64.1285    8.1657   -6.6795 C   0  0  0
   64.7748    7.3924   -6.2819 H   0  0  0
   64.4802    9.1748   -6.5087 H   0  0  0
   63.5625    6.6215   -8.5844 N   0  0  0
   64.5163    6.2862   -8.6804 H   0  0  0
   62.5237    5.8943   -9.1263 C   2  0  0
   61.3572    6.2647   -9.1409 O   2  0  0
   62.9651    4.5973   -9.7363 C   1  0  0
   62.0959    4.0897  -10.1612 H   0  0  0
   63.4197    3.9606   -8.9718 H   0  0  0
   63.6912    4.7878  -10.5318 H   0  0  0
   61.9466    9.0785  -11.1096 C   0  0  0
   62.3807   10.0408  -11.4025 H   0  0  0
   62.6275    8.2745  -11.4078 H   0  0  0
   60.5601    8.8659  -11.7262 C   0  0  0
   60.2524    7.8240  -11.5840 H   0  0  0
   60.6080    9.0259  -12.8074 H   0  0  0
   59.4953    9.6940  -11.1481 N   0  0  0
   58.3491    9.9115  -11.9231 C   0  0  0
   58.2926    9.6609  -13.1167 O   0  0  0
   57.1758   10.4158  -11.2411 C   0  0  0
   56.5248    9.8768  -10.1048 C   0  0  0
   56.8305    9.0017   -9.5537 H   0  0  0
   55.4583   10.6858   -9.7825 C   0  0  0
   54.5585   10.6034   -8.6738 C   0  0  0
   53.9265   11.5543   -8.2480 O   0  0  0
   54.4732    9.3724   -8.0984 N   0  0  0
   53.8630    9.2641   -7.3009 H   0  0  0
   54.9618    8.5527   -8.4364 H   0  0  0
   55.3993   11.6570  -10.7453 N   0  0  0
   54.6718   12.3594  -10.8201 H   0  0  0
   56.4217   11.4999  -11.6364 C   0  0  0
   56.5268   12.1784  -12.4698 H   0  0  0
  2  1  1
  2  3  1
  2  4  1
  2 33  1
  4  5  1
  4  6  1
  4  7  1
  7  8  1
  7  9  1
  7 27  1
  9 10  1
  9 11  1
  9 12  1
 12 13  1
 12 19  1
 12 16  1
 13 14  1
 13 15  1
 13 16  1
 16 17  1
 16 18  1
 19 20  1
 19 21  1
 21 22  2
 21 23  1
 23 24  1
 23 25  1
 23 26  1
 27 28  1
 27 29  1
 27 30  1
 30 31  1
 30 32  1
 30 33  1
 33 34  1
 34 35  2
 34 36  1
 36 37  1
 36 47  2
 37 38  1
 37 39  2
 39 40  1
 39 45  1
 40 41  2
 40 42  1
 42 43  1
 42 44  1
 45 46  1
 45 47  1
 47 48  1
M  ZZC   1 h21
M  ZZC   2 c2
M  ZZC   3 h22
M  ZZC   4 c3
M  ZZC   5 h31
M  ZZC   6 h32
M  ZZC   7 n2
M  ZZC   8 h01
M  ZZC   9 c4
M  ZZC  10 h41
M  ZZC  11 h42
M  ZZC  12 c5
M  ZZC  13 c7
M  ZZC  14 h71
M  ZZC  15 h72
M  ZZC  16 c8
M  ZZC  17 h81
M  ZZC  18 h82
M  ZZC  19 n3
M  ZZC  20 h02
M  ZZC  21 c6
M  ZZC  22 o3
M  ZZC  23 c16
M  ZZC  24 h161
M  ZZC  25 h162
M  ZZC  26 h163
M  ZZC  27 c9
M  ZZC  28 h91
M  ZZC  29 h92
M  ZZC  30 c10
M  ZZC  31 h101
M  ZZC  32 h102
M  ZZC  33 n1
M  ZZC  34 c1
M  ZZC  35 o2
M  ZZC  36 c14
M  ZZC  37 c13
M  ZZC  38 h131
M  ZZC  39 c12
M  ZZC  40 c11
M  ZZC  41 o1
M  ZZC  42 n4
M  ZZC  43 h03
M  ZZC  44 h04
M  ZZC  45 n5
M  ZZC  46 h51
M  ZZC  47 c15
M  ZZC  48 h151
M  ZZO   1 1.000000
M  ZZO   2 1.000000
M  ZZO   3 1.000000
M  ZZO   4 1.000000
M  ZZO   5 1.000000
M  ZZO   6 1.000000
M  ZZO   7 1.000000
M  ZZO   8 1.000000
M  ZZO   9 1.000000
M  ZZO  10 1.000000
M  ZZO  11 1.000000
M  ZZO  12 1.000000
M  ZZO  13 1.000000
M  ZZO  14 1.000000
M  ZZO  15 1.000000
M  ZZO  16 1.000000
M  ZZO  17 1.000000
M  ZZO  18 1.000000
M  ZZO  19 1.000000
M  ZZO  20 1.000000
M  ZZO  21 1.000000
M  ZZO  22 1.000000
M  ZZO  23 1.000000
M  ZZO  24 1.000000
M  ZZO  25 1.000000
M  ZZO  26 1.000000
M  ZZO  27 1.000000
M  ZZO  28 1.000000
M  ZZO  29 1.000000
M  ZZO  30 1.000000
M  ZZO  31 1.000000
M  ZZO  32 1.000000
M  ZZO  33 1.000000
M  ZZO  34 1.000000
M  ZZO  35 1.000000
M  ZZO  36 1.000000
M  ZZO  37 1.000000
M  ZZO  38 1.000000
M  ZZO  39 1.000000
M  ZZO  40 1.000000
M  ZZO  41 1.000000
M  ZZO  42 1.000000
M  ZZO  43 1.000000
M  ZZO  44 1.000000
M  ZZO  45 1.000000
M  ZZO  46 1.000000
M  ZZO  47 1.000000
M  ZZO  48 1.000000
M  ZZM   1 5
M  ZZI   1 1
M  ZZM   2 1
M  ZZI   2 112
M  ZZM   3 5
M  ZZI   3 1
M  ZZM   4 1
M  ZZI   4 112
M  ZZM   5 5
M  ZZI   5 1
M  ZZM   6 5
M  ZZI   6 1
M  ZZM   7 34
M  ZZI   7 231
M  ZZM   8 36
M  ZZI   8 17
M  ZZM   9 1
M  ZZI   9 112
M  ZZM  10 5
M  ZZI  10 1
M  ZZM  11 5
M  ZZI  11 1
M  ZZM  12 22
M  ZZI  12 109
M  ZZM  13 22
M  ZZI  13 109
M  ZZM  14 5
M  ZZI  14 1
M  ZZM  15 5
M  ZZI  15 1
M  ZZM  16 22
M  ZZI  16 109
M  ZZM  17 5
M  ZZI  17 1
M  ZZM  18 5
M  ZZI  18 1
M  ZZM  19 10
M  ZZI  19 191
M  ZZM  20 28
M  ZZI  20 11
M  ZZM  21 3
M  ZZI  21 121
M  ZZM  22 7
M  ZZI  22 81
M  ZZM  23 1
M  ZZI  23 111
M  ZZM  24 5
M  ZZI  24 1
M  ZZM  25 5
M  ZZI  25 1
M  ZZM  26 5
M  ZZI  26 1
M  ZZM  27 1
M  ZZI  27 112
M  ZZM  28 5
M  ZZI  28 1
M  ZZM  29 5
M  ZZI  29 1
M  ZZM  30 1
M  ZZI  30 112
M  ZZM  31 5
M  ZZI  31 1
M  ZZM  32 5
M  ZZI  32 1
M  ZZM  33 10
M  ZZI  33 192
M  ZZM  34 3
M  ZZI  34 121
M  ZZM  35 7
M  ZZI  35 81
M  ZZM  36 64
M  ZZI  36 105
M  ZZM  37 64
M  ZZI  37 105
M  ZZM  38 5
M  ZZI  38 2
M  ZZM  39 63
M  ZZI  39 104
M  ZZM  40 3
M  ZZI  40 121
M  ZZM  41 7
M  ZZI  41 81
M  ZZM  42 10
M  ZZI  42 212
M  ZZM  43 28
M  ZZI  43 11
M  ZZM  44 28
M  ZZI  44 11
M  ZZM  45 39
M  ZZI  45 215
M  ZZM  46 23
M  ZZI  46 10
M  ZZM  47 63
M  ZZI  47 104
M  ZZM  48 5
M  ZZI  48 2
M  ZZQ   2 0.300000
M  ZZQ   4 0.503000
M  ZZQ   7 -0.509000
M  ZZQ   8 0.450000
M  ZZQ   9 0.598000
M  ZZQ  12 0.054000
M  ZZQ  14 0.100000
M  ZZQ  15 0.100000
M  ZZQ  17 0.100000
M  ZZQ  18 0.100000
M  ZZQ  19 -0.209000
M  ZZQ  20 0.370000
M  ZZQ  21 0.569000
M  ZZQ  22 -0.570000
M  ZZQ  23 0.061000
M  ZZQ  27 0.503000
M  ZZQ  30 0.300000
M  ZZQ  33 -0.660000
M  ZZQ  34 0.716000
M  ZZQ  35 -0.570000
M  ZZQ  36 -0.086000
M  ZZQ  38 0.150000
M  ZZQ  39 -0.237000
M  ZZQ  40 0.715000
M  ZZQ  41 -0.570000
M  ZZQ  42 -0.060000
M  ZZQ  43 0.370000
M  ZZQ  44 0.370000
M  ZZQ  45 0.303000
M  ZZQ  46 0.270000
M  ZZQ  47 -0.152000
M  ZZQ  48 0.150000
M  CHG  1   7   1
M  ISO  3  21  14  22  18  23  13
M  END
> <L>
0

> <full_synton_id>
{EN_m_275592afa_11001X3438X125__s21037502_s14136078_s0___23}

> <smiles_synthon_s1>


> <smiles_synthon_s2>


> <smiles_synthon_s3>
s-1

> <Tox_Class>
0.

> <Tox_Names>


> <Tox_Score>
0.

> <molPAINS>
0.

> <badGroups>


> <orig_MEL_frag>


> <MW>
339.188

> <orig_Score>
-17.760871

> <orig_Score2>
0.

> <LogP>
-1.734

> <IX>
22148

> <NAME>
C8H15N3X2

> <Score>
-33.099548

> <Natom>
48

> <Nflex>
4

> <Hbond>
-10.292652

> <Hphob>
-6.125701

> <VwInt>
-34.734524

> <Eintl>
4.486926

> <Dsolv>
16.000072

> <SolEl>
22.253628

> <mfScore>
-164.991006

> <RTCNNscore>
-27.681708

> <dTSsc>
1.329134

> <CONF>
0

> <RecConf>
1

> <O>
6609

> <OBJECTS>
RHO_1u19_reg22148[nat=50,nre=1]

> <rxn_ID>
EN_m_275592afa_11001X3438X125

> <synton_id_1>
s21037502

> <synton_id_2>
s14136078

> <synton_id_3>
s0

$$$$
m
  MOLSOFT 07062520553D

 47 49  0  0  0  0  0  0  0  0999 V2000
   59.0085   10.7840   -9.3888 H   0  0  0
   59.6205    9.9109   -9.6306 C   0  0  0
   59.1847    9.0431   -9.1298 H   0  0  0
   61.0222   10.1299   -9.0732 C   0  0  0
   61.4634   11.0688   -9.4251 H   0  0  0
   61.0059   10.1288   -7.9786 H   0  0  0
   61.9051    9.0047   -9.5354 N   0  3  0
   61.4364    8.1178   -9.2828 H   0  0  0
   63.2349    8.9615   -8.8232 C   0  0  0
   64.0186    8.9373   -9.5884 H   0  0  0
   63.3530    9.9138   -8.2930 H   0  0  0
   63.4061    7.7781   -7.8984 C   0  0  0
   62.7094    7.8174   -6.5552 C   0  0  0
   62.1058    8.6762   -6.2886 H   0  0  0
   62.3531    6.8850   -6.1377 H   0  0  0
   64.1867    8.0163   -6.6330 C   0  0  0
   64.8192    7.2236   -6.2523 H   0  0  0
   64.5602    9.0148   -6.4508 H   0  0  0
   63.5670    6.5189   -8.5592 N   0  0  0
   64.5095    6.1563   -8.6613 H   0  0  0
   62.5064    5.8249   -9.1015 C   2  0  0
   61.3469    6.2164   -9.0891 O   2  0  0
   62.9154    4.5388   -9.7539 C   1  0  0
   62.0291    4.0588  -10.1757 H   0  0  0
   63.3744    3.8743   -9.0162 H   0  0  0
   63.6293    4.7398  -10.5579 H   0  0  0
   62.0135    9.0218  -11.0409 C   0  0  0
   62.4420    9.9872  -11.3322 H   0  0  0
   62.6973    8.2213  -11.3421 H   0  0  0
   60.6261    8.8030  -11.6528 C   0  0  0
   60.3242    7.7594  -11.5103 H   0  0  0
   60.6719    8.9632  -12.7341 H   0  0  0
   59.5580    9.6269  -11.0714 N   0  0  0
   58.4058    9.8311  -11.8405 C   0  0  0
   58.3686    9.5506  -13.0289 O   0  0  0
   57.2477   10.3613  -11.1709 C   0  0  0
   56.5673    9.8885  -10.0673 C   0  0  0
   56.8699    8.9971   -9.5419 H   0  0  0
   55.4701   10.7122   -9.6871 C   0  0  0
   55.3195   11.7620  -10.5689 C   0  0  0
   54.5531   12.5256  -10.5685 H   0  0  0
   56.4987   11.7630  -11.8081 S   0  0  0
   54.5985   10.5364   -8.5490 C   0  0  0
   53.9662   11.4543   -8.0517 O   0  0  0
   54.5431    9.2648   -8.0608 N   0  0  0
   53.9449    9.0974   -7.2643 H   0  0  0
   55.0281    8.4719   -8.4622 H   0  0  0
  2  1  1
  2  3  1
  2  4  1
  2 33  1
  4  5  1
  4  6  1
  4  7  1
  7  8  1
  7  9  1
  7 27  1
  9 10  1
  9 11  1
  9 12  1
 12 13  1
 12 19  1
 12 16  1
 13 14  1
 13 15  1
 13 16  1
 16 17  1
 16 18  1
 19 20  1
 19 21  1
 21 22  2
 21 23  1
 23 24  1
 23 25  1
 23 26  1
 27 28  1
 27 29  1
 27 30  1
 30 31  1
 30 32  1
 30 33  1
 33 34  1
 34 35  2
 34 36  1
 36 37  2
 36 42  1
 37 38  1
 37 39  1
 39 40  2
 39 43  1
 40 41  1
 40 42  1
 43 44  2
 43 45  1
 45 46  1
 45 47  1
M  ZZC   1 h21
M  ZZC   2 c2
M  ZZC   3 h22
M  ZZC   4 c3
M  ZZC   5 h31
M  ZZC   6 h32
M  ZZC   7 n2
M  ZZC   8 h01
M  ZZC   9 c4
M  ZZC  10 h41
M  ZZC  11 h42
M  ZZC  12 c5
M  ZZC  13 c7
M  ZZC  14 h71
M  ZZC  15 h72
M  ZZC  16 c8
M  ZZC  17 h81
M  ZZC  18 h82
M  ZZC  19 n3
M  ZZC  20 h02
M  ZZC  21 c6
M  ZZC  22 o3
M  ZZC  23 c16
M  ZZC  24 h161
M  ZZC  25 h162
M  ZZC  26 h163
M  ZZC  27 c9
M  ZZC  28 h91
M  ZZC  29 h92
M  ZZC  30 c10
M  ZZC  31 h101
M  ZZC  32 h102
M  ZZC  33 n1
M  ZZC  34 c1
M  ZZC  35 o2
M  ZZC  36 c14
M  ZZC  37 c15
M  ZZC  38 h151
M  ZZC  39 c12
M  ZZC  40 c13
M  ZZC  41 h131
M  ZZC  42 s1
M  ZZC  43 c11
M  ZZC  44 o1
M  ZZC  45 n4
M  ZZC  46 h03
M  ZZC  47 h04
M  ZZO   1 1.000000
M  ZZO   2 1.000000
M  ZZO   3 1.000000
M  ZZO   4 1.000000
M  ZZO   5 1.000000
M  ZZO   6 1.000000
M  ZZO   7 1.000000
M  ZZO   8 1.000000
M  ZZO   9 1.000000
M  ZZO  10 1.000000
M  ZZO  11 1.000000
M  ZZO  12 1.000000
M  ZZO  13 1.000000
M  ZZO  14 1.000000
M  ZZO  15 1.000000
M  ZZO  16 1.000000
M  ZZO  17 1.000000
M  ZZO  18 1.000000
M  ZZO  19 1.000000
M  ZZO  20 1.000000
M  ZZO  21 1.000000
M  ZZO  22 1.000000
M  ZZO  23 1.000000
M  ZZO  24 1.000000
M  ZZO  25 1.000000
M  ZZO  26 1.000000
M  ZZO  27 1.000000
M  ZZO  28 1.000000
M  ZZO  29 1.000000
M  ZZO  30 1.000000
M  ZZO  31 1.000000
M  ZZO  32 1.000000
M  ZZO  33 1.000000
M  ZZO  34 1.000000
M  ZZO  35 1.000000
M  ZZO  36 1.000000
M  ZZO  37 1.000000
M  ZZO  38 1.000000
M  ZZO  39 1.000000
M  ZZO  40 1.000000
M  ZZO  41 1.000000
M  ZZO  42 1.000000
M  ZZO  43 1.000000
M  ZZO  44 1.000000
M  ZZO  45 1.000000
M  ZZO  46 1.000000
M  ZZO  47 1.000000
M  ZZM   1 5
M  ZZI   1 1
M  ZZM   2 1
M  ZZI   2 112
M  ZZM   3 5
M  ZZI   3 1
M  ZZM   4 1
M  ZZI   4 112
M  ZZM   5 5
M  ZZI   5 1
M  ZZM   6 5
M  ZZI   6 1
M  ZZM   7 34
M  ZZI   7 231
M  ZZM   8 36
M  ZZI   8 17
M  ZZM   9 1
M  ZZI   9 112
M  ZZM  10 5
M  ZZI  10 1
M  ZZM  11 5
M  ZZI  11 1
M  ZZM  12 22
M  ZZI  12 109
M  ZZM  13 22
M  ZZI  13 109
M  ZZM  14 5
M  ZZI  14 1
M  ZZM  15 5
M  ZZI  15 1
M  ZZM  16 22
M  ZZI  16 109
M  ZZM  17 5
M  ZZI  17 1
M  ZZM  18 5
M  ZZI  18 1
M  ZZM  19 10
M  ZZI  19 191
M  ZZM  20 28
M  ZZI  20 11
M  ZZM  21 3
M  ZZI  21 121
M  ZZM  22 7
M  ZZI  22 81
M  ZZM  23 1
M  ZZI  23 111
M  ZZM  24 5
M  ZZI  24 1
M  ZZM  25 5
M  ZZI  25 1
M  ZZM  26 5
M  ZZI  26 1
M  ZZM  27 1
M  ZZI  27 112
M  ZZM  28 5
M  ZZI  28 1
M  ZZM  29 5
M  ZZI  29 1
M  ZZM  30 1
M  ZZI  30 112
M  ZZM  31 5
M  ZZI  31 1
M  ZZM  32 5
M  ZZI  32 1
M  ZZM  33 10
M  ZZI  33 192
M  ZZM  34 3
M  ZZI  34 121
M  ZZM  35 7
M  ZZI  35 81
M  ZZM  36 63
M  ZZI  36 104
M  ZZM  37 64
M  ZZI  37 105
M  ZZM  38 5
M  ZZI  38 2
M  ZZM  39 64
M  ZZI  39 105
M  ZZM  40 63
M  ZZI  40 104
M  ZZM  41 5
M  ZZI  41 2
M  ZZM  42 44
M  ZZI  42 248
M  ZZM  43 3
M  ZZI  43 121
M  ZZM  44 7
M  ZZI  44 81
M  ZZM  45 10
M  ZZI  45 212
M  ZZM  46 28
M  ZZI  46 11
M  ZZM  47 28
M  ZZI  47 11
M  ZZQ   2 0.300000
M  ZZQ   4 0.503000
M  ZZQ   7 -0.509000
M  ZZQ   8 0.450000
M  ZZQ   9 0.598000
M  ZZQ  12 0.054000
M  ZZQ  14 0.100000
M  ZZQ  15 0.100000
M  ZZQ  17 0.100000
M  ZZQ  18 0.100000
M  ZZQ  19 -0.209000
M  ZZQ  20 0.370000
M  ZZQ  21 0.569000
M  ZZQ  22 -0.570000
M  ZZQ  23 0.061000
M  ZZQ  27 0.503000
M  ZZQ  30 0.300000
M  ZZQ  33 -0.660000
M  ZZQ  34 0.715000
M  ZZQ  35 -0.570000
M  ZZQ  36 -0.045000
M  ZZQ  38 0.150000
M  ZZQ  39 -0.086000
M  ZZQ  40 0.040000
M  ZZQ  41 0.150000
M  ZZQ  42 -0.080000
M  ZZQ  43 0.716000
M  ZZQ  44 -0.570000
M  ZZQ  45 -0.060000
M  ZZQ  46 0.370000
M  ZZQ  47 0.370000
M  CHG  1   7   1
M  ISO  3  21  14  22  18  23  13
M  END
> <L>
0

> <full_synton_id>
{EN_m_275592afa_11001X3438X125__s21037502_s14136488_s0___23}

> <smiles_synthon_s3>
s-1

> <Tox_Class>
0.

> <Tox_Score>
0.

> <molPAINS>
0.

> <MW>
356.149

> <orig_Score>
-15.025731

> <orig_Score2>
0.

> <LogP>
-0.933

> <IX>
9777

> <NAME>
C8H15N3X2

> <Score>
-28.36371

> <Natom>
47

> <Nflex>
4

> <Hbond>
-9.277504

> <Hphob>
-6.628098

> <VwInt>
-32.197579

> <Eintl>
3.675158

> <Dsolv>
14.578777

> <SolEl>
24.556972

> <mfScore>
-169.232903

> <RTCNNscore>
-28.793317

> <dTSsc>
1.332556

> <CONF>
0

> <RecConf>
1

> <O>
3545

> <OBJECTS>
RHO_1u19_reg9777[nat=49,nre=1]

> <rxn_ID>
EN_m_275592afa_11001X3438X125

> <synton_id_1>
s21037502

> <synton_id_2>
s14136488

> <synton_id_3>
s0

$$$$
m
  MOLSOFT 07062520553D

 53 55  0  0  1  0  0  0  0  0999 V2000
   64.8092    8.0950   -6.4423 H   0  0  0
   64.1885    8.5683   -7.2089 C   0  0  0
   64.8414    8.8523   -8.0396 H   0  0  0
   63.4596    9.7975   -6.6803 C   0  0  0
   63.7491   10.0658   -5.6653 H   0  0  0
   63.6772   10.6660   -7.3106 H   0  0  0
   63.1028    7.6122   -7.6743 C   0  0  2
   62.8316    6.9681   -6.8273 H   0  0  0
   63.5516    6.7112   -8.7241 N   0  0  0
   64.4985    6.8006   -9.0876 H   0  0  0
   62.7590    5.6521   -9.1085 C   2  0  0
   61.6291    5.4584   -8.6875 O   2  0  0
   63.3982    4.7420  -10.1110 C   1  0  0
   62.6640    4.5145  -10.8860 H   0  0  0
   63.7075    3.8212   -9.6094 H   0  0  0
   64.2661    5.2104  -10.5829 H   0  0  0
   61.9026    8.5303   -7.9776 C   0  0  1
   60.9451    7.9996   -8.0189 H   0  0  0
   61.9953    9.4297   -6.7498 C   0  0  0
   61.7437    8.8467   -5.8597 H   0  0  0
   61.3290   10.2919   -6.7335 H   0  0  0
   62.0722    9.3268   -9.3009 N   0  3  0
   63.0652    9.5962   -9.3728 H   0  0  0
   61.3109   10.6368   -9.3463 C   0  0  0
   61.4351   11.1836   -8.4137 H   0  0  0
   61.8024   11.2429  -10.1050 H   0  0  0
   59.8465   10.3744   -9.6765 C   0  0  0
   59.2707   11.3032   -9.6296 H   0  0  0
   59.4279    9.6836   -8.9425 H   0  0  0
   61.7598    8.4796  -10.5451 C   0  0  0
   62.7149    8.1617  -10.9752 H   0  0  0
   61.2080    7.5962  -10.2143 H   0  0  0
   60.9024    9.2132  -11.5910 C   0  0  0
   61.4655   10.0273  -12.0577 H   0  0  0
   60.6262    8.5249  -12.3964 H   0  0  0
   59.6920    9.7772  -11.0008 N   0  0  0
   58.4802    9.7901  -11.7017 C   0  0  0
   58.3969    9.5717  -12.9027 O   0  0  0
   57.2878   10.0639  -10.9108 C   0  0  0
   57.0854    9.4517   -9.7355 N   0  0  0
   56.2002   10.9088  -11.2272 C   0  0  0
   56.1057   11.5349  -12.1030 H   0  0  0
   55.3223   10.8169  -10.1631 C   0  0  0
   54.0982   11.5033   -9.8743 C   0  0  0
   53.5026   11.4014   -8.8156 O   0  0  0
   53.6483   12.3166  -10.8645 N   0  0  0
   52.7843   12.8272  -10.7459 H   0  0  0
   54.1261   12.4170  -11.7480 H   0  0  0
   55.8730    9.8690   -9.3402 N   0  0  0
   55.2975    9.2945   -8.1300 C   0  0  0
   55.3385   10.0551   -7.3448 H   0  0  0
   55.8822    8.4172   -7.8407 H   0  0  0
   54.2682    8.9867   -8.3383 H   0  0  0
  2  1  1
  2  3  1
  2  4  1
  7  2  1
  4  5  1
  4  6  1
  4 19  1
  7  8  1
  7  9  1
  7 17  1
  9 10  1
  9 11  1
 11 12  2
 11 13  1
 13 14  1
 13 15  1
 13 16  1
 17 18  1
 17 19  1
 17 22  1
 19 20  1
 19 21  1
 22 23  1
 22 24  1
 22 30  1
 24 25  1
 24 26  1
 24 27  1
 27 28  1
 27 29  1
 27 36  1
 30 31  1
 30 32  1
 30 33  1
 33 34  1
 33 35  1
 33 36  1
 36 37  1
 37 38  2
 37 39  1
 39 40  2
 39 41  1
 40 49  1
 41 42  1
 41 43  2
 43 44  1
 43 49  1
 44 45  2
 44 46  1
 46 47  1
 46 48  1
 49 50  1
 50 51  1
 50 52  1
 50 53  1
M  ZZC   1 h31
M  ZZC   2 c3
M  ZZC   3 h32
M  ZZC   4 c4
M  ZZC   5 h41
M  ZZC   6 h42
M  ZZC   7 c2
M  ZZC   8 h21
M  ZZC   9 n1
M  ZZC  10 h11
M  ZZC  11 c1
M  ZZC  12 o1
M  ZZC  13 c12
M  ZZC  14 h121
M  ZZC  15 h122
M  ZZC  16 h123
M  ZZC  17 c6
M  ZZC  18 h61
M  ZZC  19 c5
M  ZZC  20 h51
M  ZZC  21 h52
M  ZZC  22 n2
M  ZZC  23 h01
M  ZZC  24 c11
M  ZZC  25 h111
M  ZZC  26 h112
M  ZZC  27 c10
M  ZZC  28 h101
M  ZZC  29 h102
M  ZZC  30 c7
M  ZZC  31 h71
M  ZZC  32 h72
M  ZZC  33 c8
M  ZZC  34 h81
M  ZZC  35 h82
M  ZZC  36 n3
M  ZZC  37 c9
M  ZZC  38 o2
M  ZZC  39 c14
M  ZZC  40 n5
M  ZZC  41 c15
M  ZZC  42 h151
M  ZZC  43 c16
M  ZZC  44 c17
M  ZZC  45 o3
M  ZZC  46 n6
M  ZZC  47 h02
M  ZZC  48 h62
M  ZZC  49 n4
M  ZZC  50 c13
M  ZZC  51 h131
M  ZZC  52 h132
M  ZZC  53 h133
M  ZZO   1 1.000000
M  ZZO   2 1.000000
M  ZZO   3 1.000000
M  ZZO   4 1.000000
M  ZZO   5 1.000000
M  ZZO   6 1.000000
M  ZZO   7 1.000000
M  ZZO   8 1.000000
M  ZZO   9 1.000000
M  ZZO  10 1.000000
M  ZZO  11 1.000000
M  ZZO  12 1.000000
M  ZZO  13 1.000000
M  ZZO  14 1.000000
M  ZZO  15 1.000000
M  ZZO  16 1.000000
M  ZZO  17 1.000000
M  ZZO  18 1.000000
M  ZZO  19 1.000000
M  ZZO  20 1.000000
M  ZZO  21 1.000000
M  ZZO  22 1.000000
M  ZZO  23 1.000000
M  ZZO  24 1.000000
M  ZZO  25 1.000000
M  ZZO  26 1.000000
M  ZZO  27 1.000000
M  ZZO  28 1.000000
M  ZZO  29 1.000000
M  ZZO  30 1.000000
M  ZZO  31 1.000000
M  ZZO  32 1.000000
M  ZZO  33 1.000000
M  ZZO  34 1.000000
M  ZZO  35 1.000000
M  ZZO  36 1.000000
M  ZZO  37 1.000000
M  ZZO  38 1.000000
M  ZZO  39 1.000000
M  ZZO  40 1.000000
M  ZZO  41 1.000000
M  ZZO  42 1.000000
M  ZZO  43 1.000000
M  ZZO  44 1.000000
M  ZZO  45 1.000000
M  ZZO  46 1.000000
M  ZZO  47 1.000000
M  ZZO  48 1.000000
M  ZZO  49 1.000000
M  ZZO  50 1.000000
M  ZZO  51 1.000000
M  ZZO  52 1.000000
M  ZZO  53 1.000000
M  ZZM   1 5
M  ZZI   1 1
M  ZZM   2 1
M  ZZI   2 112
M  ZZM   3 5
M  ZZI   3 1
M  ZZM   4 1
M  ZZI   4 112
M  ZZM   5 5
M  ZZI   5 1
M  ZZM   6 5
M  ZZI   6 1
M  ZZM   7 1
M  ZZI   7 113
M  ZZM   8 5
M  ZZI   8 1
M  ZZM   9 10
M  ZZI   9 211
M  ZZM  10 28
M  ZZI  10 11
M  ZZM  11 3
M  ZZI  11 121
M  ZZM  12 7
M  ZZI  12 81
M  ZZM  13 1
M  ZZI  13 111
M  ZZM  14 5
M  ZZI  14 1
M  ZZM  15 5
M  ZZI  15 1
M  ZZM  16 5
M  ZZI  16 1
M  ZZM  17 1
M  ZZI  17 113
M  ZZM  18 5
M  ZZI  18 1
M  ZZM  19 1
M  ZZI  19 112
M  ZZM  20 5
M  ZZI  20 1
M  ZZM  21 5
M  ZZI  21 1
M  ZZM  22 34
M  ZZI  22 231
M  ZZM  23 36
M  ZZI  23 17
M  ZZM  24 1
M  ZZI  24 112
M  ZZM  25 5
M  ZZI  25 1
M  ZZM  26 5
M  ZZI  26 1
M  ZZM  27 1
M  ZZI  27 112
M  ZZM  28 5
M  ZZI  28 1
M  ZZM  29 5
M  ZZI  29 1
M  ZZM  30 1
M  ZZI  30 112
M  ZZM  31 5
M  ZZI  31 1
M  ZZM  32 5
M  ZZI  32 1
M  ZZM  33 1
M  ZZI  33 112
M  ZZM  34 5
M  ZZI  34 1
M  ZZM  35 5
M  ZZI  35 1
M  ZZM  36 10
M  ZZI  36 192
M  ZZM  37 3
M  ZZI  37 121
M  ZZM  38 7
M  ZZI  38 81
M  ZZM  39 64
M  ZZI  39 105
M  ZZM  40 65
M  ZZI  40 207
M  ZZM  41 64
M  ZZI  41 105
M  ZZM  42 5
M  ZZI  42 2
M  ZZM  43 63
M  ZZI  43 104
M  ZZM  44 3
M  ZZI  44 121
M  ZZM  45 7
M  ZZI  45 81
M  ZZM  46 10
M  ZZI  46 212
M  ZZM  47 28
M  ZZI  47 11
M  ZZM  48 28
M  ZZI  48 11
M  ZZM  49 39
M  ZZI  49 215
M  ZZM  50 1
M  ZZI  50 111
M  ZZM  51 5
M  ZZI  51 1
M  ZZM  52 5
M  ZZI  52 1
M  ZZM  53 5
M  ZZI  53 1
M  ZZQ   7 0.300000
M  ZZQ   9 -0.360000
M  ZZQ  10 0.370000
M  ZZQ  11 0.569000
M  ZZQ  12 -0.570000
M  ZZQ  13 0.061000
M  ZZQ  17 0.503000
M  ZZQ  22 -0.509000
M  ZZQ  23 0.450000
M  ZZQ  24 0.503000
M  ZZQ  27 0.300000
M  ZZQ  30 0.503000
M  ZZQ  33 0.300000
M  ZZQ  36 -0.660000
M  ZZQ  37 0.716000
M  ZZQ  38 -0.570000
M  ZZQ  39 0.203000
M  ZZQ  40 -0.707000
M  ZZQ  42 0.150000
M  ZZQ  43 -0.237000
M  ZZQ  44 0.715000
M  ZZQ  45 -0.570000
M  ZZQ  46 -0.060000
M  ZZQ  47 0.370000
M  ZZQ  48 0.370000
M  ZZQ  49 0.314000
M  ZZQ  50 0.256000
M  CHG  1  22   1
M  ISO  3  11  14  12  18  13  13
M  END
> <L>
0

> <full_synton_id>
{EN_m_275592aba_11001X3438X393__s15865386_s0_s21837954___23}

> <smiles_synthon_s3>
s-1

> <Tox_Class>
0.

> <Tox_Score>
0.

> <molPAINS>
0.

> <MW>
368.214

> <orig_Score>
-15.440236

> <orig_Score2>
0.

> <LogP>
-1.586

> <IX>
10969

> <NAME>
C9H17N3X2

> <Score>
-27.595405

> <Natom>
53

> <Nflex>
3

> <Hbond>
-11.460754

> <Hphob>
-6.58261

> <VwInt>
-33.434205

> <Eintl>
14.522366

> <Dsolv>
16.657951

> <SolEl>
24.60299

> <mfScore>
-155.441982

> <RTCNNscore>
-35.838687

> <dTSsc>
1.311341

> <CONF>
0

> <RecConf>
1

> <O>
1027

> <OBJECTS>
RHO_1u19_reg10969[nat=55,nre=1]

> <rxn_ID>
EN_m_275592aba_11001X3438X393

> <synton_id_1>
s15865386

> <synton_id_2>
s0

> <synton_id_3>
s21837954

$$$$
m
  MOLSOFT 07062520553D

 48 51  0  0  0  0  0  0  0  0999 V2000
   58.9225   10.8870   -9.3560 H   0  0  0
   59.5417   10.0296   -9.6355 C   0  0  0
   59.1382    9.1461   -9.1368 H   0  0  0
   60.9557   10.2447   -9.1155 C   0  0  0
   61.3886   11.1868   -9.4672 H   0  0  0
   60.9675   10.2321   -8.0213 H   0  0  0
   61.8233    9.1228   -9.6135 N   0  3  0
   61.3651    8.2285   -9.3649 H   0  0  0
   63.1677    9.0786   -8.9310 C   0  0  0
   63.9312    9.0248   -9.7148 H   0  0  0
   63.3117   10.0429   -8.4301 H   0  0  0
   63.3529    7.9178   -7.9795 C   0  0  0
   64.1227    8.1925   -6.7132 C   0  0  0
   64.7656    7.4157   -6.3169 H   0  0  0
   64.4805    9.1996   -6.5419 H   0  0  0
   62.6485    7.9717   -6.6399 C   0  0  0
   62.0323    8.8261   -6.3893 H   0  0  0
   62.3030    7.0432   -6.2038 H   0  0  0
   63.5411    6.6486   -8.6143 N   0  0  0
   64.4919    6.3027   -8.7047 H   0  0  0
   62.4973    5.9312   -9.1599 C   2  0  0
   61.3356    6.3158   -9.1842 O   2  0  0
   62.9281    4.6244   -9.7581 C   1  0  0
   62.0565    4.1206  -10.1833 H   0  0  0
   63.3729    3.9896   -8.9862 H   0  0  0
   63.6610    4.8011  -10.5506 H   0  0  0
   61.8982    9.1654  -11.1211 C   0  0  0
   62.3364   10.1286  -11.4039 H   0  0  0
   62.5650    8.3620  -11.4506 H   0  0  0
   60.4957    8.9774  -11.7128 C   0  0  0
   60.1966    7.9285  -11.6084 H   0  0  0
   60.5161    9.1818  -12.7876 H   0  0  0
   59.4358    9.7739  -11.0795 N   0  0  0
   58.2443    9.9470  -11.7979 C   0  0  0
   58.1256    9.7106  -12.9911 O   0  0  0
   57.0490   10.4189  -11.0330 C   0  0  0
   56.3177   11.6037  -11.4093 C   0  0  0
   56.6246   12.1506  -12.2934 H   0  0  0
   55.2489   12.0012  -10.7031 C   0  0  0
   54.6626   12.8613  -11.0045 H   0  0  0
   54.8414   11.2716   -9.5674 C   0  0  0
   53.9273   11.5026   -8.6567 N   0  0  0
   54.0039   10.3859   -7.8844 C   0  0  0
   53.3586   10.2176   -7.0384 H   0  0  0
   54.9402    9.5021   -8.2311 N   0  0  0
   55.4963   10.0970   -9.2989 N   0  0  0
   56.5747    9.6743  -10.0249 C   0  0  0
   57.0118    8.7424   -9.7040 H   0  0  0
  2  1  1
  2  3  1
  2  4  1
  2 33  1
  4  5  1
  4  6  1
  4  7  1
  7  8  1
  7  9  1
  7 27  1
  9 10  1
  9 11  1
  9 12  1
 12 13  1
 12 19  1
 12 16  1
 13 14  1
 13 15  1
 13 16  1
 16 17  1
 16 18  1
 19 20  1
 19 21  1
 21 22  2
 21 23  1
 23 24  1
 23 25  1
 23 26  1
 27 28  1
 27 29  1
 27 30  1
 30 31  1
 30 32  1
 30 33  1
 33 34  1
 34 35  2
 34 36  1
 36 37  1
 36 47  2
 37 38  1
 37 39  2
 39 40  1
 39 41  1
 41 42  2
 41 46  1
 42 43  1
 43 44  1
 43 45  2
 45 46  1
 46 47  1
 47 48  1
M  ZZC   1 h21
M  ZZC   2 c2
M  ZZC   3 h22
M  ZZC   4 c3
M  ZZC   5 h31
M  ZZC   6 h32
M  ZZC   7 n2
M  ZZC   8 h01
M  ZZC   9 c4
M  ZZC  10 h41
M  ZZC  11 h42
M  ZZC  12 c5
M  ZZC  13 c7
M  ZZC  14 h71
M  ZZC  15 h72
M  ZZC  16 c8
M  ZZC  17 h81
M  ZZC  18 h82
M  ZZC  19 n3
M  ZZC  20 h02
M  ZZC  21 c6
M  ZZC  22 o2
M  ZZC  23 c17
M  ZZC  24 h171
M  ZZC  25 h172
M  ZZC  26 h173
M  ZZC  27 c9
M  ZZC  28 h91
M  ZZC  29 h92
M  ZZC  30 c10
M  ZZC  31 h101
M  ZZC  32 h102
M  ZZC  33 n1
M  ZZC  34 c1
M  ZZC  35 o1
M  ZZC  36 c11
M  ZZC  37 c12
M  ZZC  38 h121
M  ZZC  39 c13
M  ZZC  40 h131
M  ZZC  41 c14
M  ZZC  42 n4
M  ZZC  43 c15
M  ZZC  44 h151
M  ZZC  45 n5
M  ZZC  46 n6
M  ZZC  47 c16
M  ZZC  48 h161
M  ZZO   1 1.000000
M  ZZO   2 1.000000
M  ZZO   3 1.000000
M  ZZO   4 1.000000
M  ZZO   5 1.000000
M  ZZO   6 1.000000
M  ZZO   7 1.000000
M  ZZO   8 1.000000
M  ZZO   9 1.000000
M  ZZO  10 1.000000
M  ZZO  11 1.000000
M  ZZO  12 1.000000
M  ZZO  13 1.000000
M  ZZO  14 1.000000
M  ZZO  15 1.000000
M  ZZO  16 1.000000
M  ZZO  17 1.000000
M  ZZO  18 1.000000
M  ZZO  19 1.000000
M  ZZO  20 1.000000
M  ZZO  21 1.000000
M  ZZO  22 1.000000
M  ZZO  23 1.000000
M  ZZO  24 1.000000
M  ZZO  25 1.000000
M  ZZO  26 1.000000
M  ZZO  27 1.000000
M  ZZO  28 1.000000
M  ZZO  29 1.000000
M  ZZO  30 1.000000
M  ZZO  31 1.000000
M  ZZO  32 1.000000
M  ZZO  33 1.000000
M  ZZO  34 1.000000
M  ZZO  35 1.000000
M  ZZO  36 1.000000
M  ZZO  37 1.000000
M  ZZO  38 1.000000
M  ZZO  39 1.000000
M  ZZO  40 1.000000
M  ZZO  41 1.000000
M  ZZO  42 1.000000
M  ZZO  43 1.000000
M  ZZO  44 1.000000
M  ZZO  45 1.000000
M  ZZO  46 1.000000
M  ZZO  47 1.000000
M  ZZO  48 1.000000
M  ZZM   1 5
M  ZZI   1 1
M  ZZM   2 1
M  ZZI   2 112
M  ZZM   3 5
M  ZZI   3 1
M  ZZM   4 1
M  ZZI   4 112
M  ZZM   5 5
M  ZZI   5 1
M  ZZM   6 5
M  ZZI   6 1
M  ZZM   7 34
M  ZZI   7 231
M  ZZM   8 36
M  ZZI   8 17
M  ZZM   9 1
M  ZZI   9 112
M  ZZM  10 5
M  ZZI  10 1
M  ZZM  11 5
M  ZZI  11 1
M  ZZM  12 22
M  ZZI  12 109
M  ZZM  13 22
M  ZZI  13 109
M  ZZM  14 5
M  ZZI  14 1
M  ZZM  15 5
M  ZZI  15 1
M  ZZM  16 22
M  ZZI  16 109
M  ZZM  17 5
M  ZZI  17 1
M  ZZM  18 5
M  ZZI  18 1
M  ZZM  19 10
M  ZZI  19 191
M  ZZM  20 28
M  ZZI  20 11
M  ZZM  21 3
M  ZZI  21 121
M  ZZM  22 7
M  ZZI  22 81
M  ZZM  23 1
M  ZZI  23 111
M  ZZM  24 5
M  ZZI  24 1
M  ZZM  25 5
M  ZZI  25 1
M  ZZM  26 5
M  ZZI  26 1
M  ZZM  27 1
M  ZZI  27 112
M  ZZM  28 5
M  ZZI  28 1
M  ZZM  29 5
M  ZZI  29 1
M  ZZM  30 1
M  ZZI  30 112
M  ZZM  31 5
M  ZZI  31 1
M  ZZM  32 5
M  ZZI  32 1
M  ZZM  33 10
M  ZZI  33 192
M  ZZM  34 3
M  ZZI  34 121
M  ZZM  35 7
M  ZZI  35 81
M  ZZM  36 2
M  ZZI  36 120
M  ZZM  37 2
M  ZZI  37 120
M  ZZM  38 5
M  ZZI  38 2
M  ZZM  39 2
M  ZZI  39 120
M  ZZM  40 5
M  ZZI  40 2
M  ZZM  41 63
M  ZZI  41 104
M  ZZM  42 66
M  ZZI  42 222
M  ZZM  43 64
M  ZZI  43 105
M  ZZM  44 5
M  ZZI  44 6
M  ZZM  45 65
M  ZZI  45 207
M  ZZM  46 39
M  ZZI  46 215
M  ZZM  47 2
M  ZZI  47 120
M  ZZM  48 5
M  ZZI  48 2
M  ZZQ   2 0.300000
M  ZZQ   4 0.503000
M  ZZQ   7 -0.509000
M  ZZQ   8 0.450000
M  ZZQ   9 0.598000
M  ZZQ  12 0.054000
M  ZZQ  14 0.100000
M  ZZQ  15 0.100000
M  ZZQ  17 0.100000
M  ZZQ  18 0.100000
M  ZZQ  19 -0.209000
M  ZZQ  20 0.370000
M  ZZQ  21 0.569000
M  ZZQ  22 -0.570000
M  ZZQ  23 0.061000
M  ZZQ  27 0.503000
M  ZZQ  30 0.300000
M  ZZQ  33 -0.660000
M  ZZQ  34 0.616000
M  ZZQ  35 -0.570000
M  ZZQ  36 0.014000
M  ZZQ  38 0.150000
M  ZZQ  39 0.045000
M  ZZQ  40 0.150000
M  ZZQ  41 0.141000
M  ZZQ  42 -0.565000
M  ZZQ  43 0.516000
M  ZZQ  44 0.150000
M  ZZQ  45 -0.707000
M  ZZQ  46 0.601000
M  ZZQ  47 -0.031000
M  ZZQ  48 0.150000
M  CHG  1   7   1
M  ISO  3  21  14  22  18  23  13
M  END
> <L>
0

> <full_synton_id>
{EN_m_275592afa_11001X3438X125__s21037502_s15845070_s0___23}

> <smiles_synthon_s3>
s-1

> <Tox_Class>
0.

> <Tox_Score>
0.

> <molPAINS>
0.

> <MW>
348.188

> <orig_Score>
-18.662541

> <orig_Score2>
0.

> <LogP>
-1.239

> <IX>
38048

> <NAME>
C8H15N3X2

> <Score>
-27.175348

> <Natom>
48

> <Nflex>
4

> <Hbond>
-8.259482

> <Hphob>
-7.38777

> <VwInt>
-31.901557

> <Eintl>
5.211131

> <Dsolv>
15.116175

> <SolEl>
20.770748

> <mfScore>
-179.518199

> <RTCNNscore>
-30.652383

> <dTSsc>
1.329134

> <CONF>
0

> <RecConf>
1

> <O>
3250

> <OBJECTS>
RHO_1u19_reg38048[nat=50,nre=1]

> <rxn_ID>
EN_m_275592afa_11001X3438X125

> <synton_id_1>
s21037502

> <synton_id_2>
s15845070

> <synton_id_3>
s0

$$$$
m
  MOLSOFT 07062520553D

 37 37  0  0  0  0  0  0  0  0999 V2000
   63.5115    6.3154   -6.1221 H   0  0  0
   63.8469    7.1504   -6.7464 C   0  0  0
   64.8808    7.3731   -6.4667 H   0  0  0
   63.8630    6.7084   -8.1274 N   0  0  0
   64.6934    6.8965   -8.6841 H   0  0  0
   62.8059    6.0198   -8.6860 C   2  0  0
   61.7687    5.7402   -8.1035 O   2  0  0
   63.0544    5.6107  -10.1111 C   1  0  0
   62.0984    5.4345  -10.6132 H   0  0  0
   63.6464    4.6908  -10.1255 H   0  0  0
   63.5914    6.3987  -10.6490 H   0  0  0
   62.9542    8.3647   -6.5028 C   0  0  0
   61.9044    8.1005   -6.6680 H   0  0  0
   63.0301    8.6378   -5.4505 H   0  0  0
   63.3459    9.5694   -7.3550 C   0  0  0
   63.1893   10.4904   -6.7846 H   0  0  0
   64.3962    9.5431   -7.6554 H   0  0  0
   62.5351    9.6237   -8.5533 N   0  0  0
   62.8396    9.0914   -9.3617 H   0  0  0
   61.3267   10.2834   -8.5404 C   0  0  0
   60.9558   10.9924   -7.6206 O   0  0  0
   60.4106   10.0841   -9.6934 C   0  0  0
   60.8055    9.4417  -10.8627 C   0  0  0
   62.0581    8.9790  -11.0148 F   0  0  0
   59.9042    9.2775  -11.8948 C   0  0  0
   60.2880    8.6565  -13.0154 F   0  0  0
   58.6081    9.7334  -11.7797 C   0  0  0
   57.7662    9.6043  -12.8118 F   0  0  0
   58.1960   10.3330  -10.6071 C   0  0  0
   59.0938   10.5334   -9.5652 C   0  0  0
   58.7682   11.0273   -8.6546 H   0  0  0
   56.4720   10.8122  -10.4274 S   0  0  0
   55.6502    9.6787  -10.7934 O   0  0  0
   56.3277   11.4677   -9.1459 O   0  0  0
   56.3165   11.9775  -11.6251 N   0  0  0
   55.5603   11.7522  -12.2795 H   0  0  0
   56.2454   12.9316  -11.2676 H   0  0  0
  2  1  1
  2  3  1
  2  4  1
  2 12  1
  4  5  1
  4  6  1
  6  7  2
  6  8  1
  8  9  1
  8 10  1
  8 11  1
 12 13  1
 12 14  1
 12 15  1
 15 16  1
 15 17  1
 15 18  1
 18 19  1
 18 20  1
 20 21  2
 20 22  1
 22 23  2
 22 30  1
 23 24  1
 23 25  1
 25 26  1
 25 27  2
 27 28  1
 27 29  1
 29 30  2
 29 32  1
 30 31  1
 32 33  2
 32 34  2
 32 35  1
 35 36  1
 35 37  1
M  ZZC   1 h21
M  ZZC   2 c2
M  ZZC   3 h22
M  ZZC   4 n1
M  ZZC   5 h11
M  ZZC   6 c1
M  ZZC   7 o1
M  ZZC   8 c6
M  ZZC   9 h61
M  ZZC  10 h62
M  ZZC  11 h63
M  ZZC  12 c3
M  ZZC  13 h31
M  ZZC  14 h32
M  ZZC  15 c4
M  ZZC  16 h41
M  ZZC  17 h42
M  ZZC  18 n2
M  ZZC  19 h01
M  ZZC  20 c5
M  ZZC  21 o4
M  ZZC  22 c9
M  ZZC  23 c10
M  ZZC  24 f1
M  ZZC  25 c11
M  ZZC  26 f2
M  ZZC  27 c12
M  ZZC  28 f3
M  ZZC  29 c7
M  ZZC  30 c8
M  ZZC  31 h81
M  ZZC  32 s1
M  ZZC  33 o2
M  ZZC  34 o3
M  ZZC  35 n3
M  ZZC  36 h02
M  ZZC  37 h03
M  ZZO   1 1.000000
M  ZZO   2 1.000000
M  ZZO   3 1.000000
M  ZZO   4 1.000000
M  ZZO   5 1.000000
M  ZZO   6 1.000000
M  ZZO   7 1.000000
M  ZZO   8 1.000000
M  ZZO   9 1.000000
M  ZZO  10 1.000000
M  ZZO  11 1.000000
M  ZZO  12 1.000000
M  ZZO  13 1.000000
M  ZZO  14 1.000000
M  ZZO  15 1.000000
M  ZZO  16 1.000000
M  ZZO  17 1.000000
M  ZZO  18 1.000000
M  ZZO  19 1.000000
M  ZZO  20 1.000000
M  ZZO  21 1.000000
M  ZZO  22 1.000000
M  ZZO  23 1.000000
M  ZZO  24 1.000000
M  ZZO  25 1.000000
M  ZZO  26 1.000000
M  ZZO  27 1.000000
M  ZZO  28 1.000000
M  ZZO  29 1.000000
M  ZZO  30 1.000000
M  ZZO  31 1.000000
M  ZZO  32 1.000000
M  ZZO  33 1.000000
M  ZZO  34 1.000000
M  ZZO  35 1.000000
M  ZZO  36 1.000000
M  ZZO  37 1.000000
M  ZZM   1 5
M  ZZI   1 1
M  ZZM   2 1
M  ZZI   2 112
M  ZZM   3 5
M  ZZI   3 1
M  ZZM   4 10
M  ZZI   4 211
M  ZZM   5 28
M  ZZI   5 11
M  ZZM   6 3
M  ZZI   6 121
M  ZZM   7 7
M  ZZI   7 81
M  ZZM   8 1
M  ZZI   8 111
M  ZZM   9 5
M  ZZI   9 1
M  ZZM  10 5
M  ZZI  10 1
M  ZZM  11 5
M  ZZI  11 1
M  ZZM  12 1
M  ZZI  12 112
M  ZZM  13 5
M  ZZI  13 1
M  ZZM  14 5
M  ZZI  14 1
M  ZZM  15 1
M  ZZI  15 112
M  ZZM  16 5
M  ZZI  16 1
M  ZZM  17 5
M  ZZI  17 1
M  ZZM  18 10
M  ZZI  18 211
M  ZZM  19 28
M  ZZI  19 11
M  ZZM  20 3
M  ZZI  20 121
M  ZZM  21 7
M  ZZI  21 81
M  ZZM  22 37
M  ZZI  22 124
M  ZZM  23 37
M  ZZI  23 124
M  ZZM  24 11
M  ZZI  24 90
M  ZZM  25 37
M  ZZI  25 124
M  ZZM  26 11
M  ZZI  26 90
M  ZZM  27 37
M  ZZI  27 124
M  ZZM  28 11
M  ZZI  28 90
M  ZZM  29 37
M  ZZI  29 124
M  ZZM  30 37
M  ZZI  30 125
M  ZZM  31 5
M  ZZI  31 2
M  ZZM  32 18
M  ZZI  32 250
M  ZZM  33 32
M  ZZI  33 73
M  ZZM  34 32
M  ZZI  34 73
M  ZZM  35 43
M  ZZI  35 226
M  ZZM  36 28
M  ZZI  36 11
M  ZZM  37 28
M  ZZI  37 11
M  ZZQ   2 0.300000
M  ZZQ   4 -0.360000
M  ZZQ   5 0.370000
M  ZZQ   6 0.569000
M  ZZQ   7 -0.570000
M  ZZQ   8 0.061000
M  ZZQ  15 0.300000
M  ZZQ  18 -0.360000
M  ZZQ  19 0.370000
M  ZZQ  20 0.544000
M  ZZQ  21 -0.570000
M  ZZQ  22 0.086000
M  ZZQ  23 0.190000
M  ZZQ  24 -0.190000
M  ZZQ  25 0.190000
M  ZZQ  26 -0.190000
M  ZZQ  27 0.190000
M  ZZQ  28 -0.190000
M  ZZQ  29 -0.009000
M  ZZQ  31 0.150000
M  ZZQ  32 1.447000
M  ZZQ  33 -0.650000
M  ZZQ  34 -0.650000
M  ZZQ  35 -0.138000
M  ZZQ  36 0.420000
M  ZZQ  37 0.420000
M  ISO  3   6  14   7  18   8  13
M  END
> <L>
0

> <full_synton_id>
{EN_m_275592aba_11001X3438X393__s14114658_s0_s19069832___23}

> <smiles_synthon_s3>
s-1

> <Tox_Class>
0.

> <Tox_Score>
0.

> <molPAINS>
0.

> <MW>
358.066

> <orig_Score>
-13.919433

> <orig_Score2>
0.

> <LogP>
-0.25

> <IX>
23151

> <NAME>
C3H8N2X2

> <Score>
-27.170959

> <Natom>
37

> <Nflex>
6

> <Hbond>
-6.995912

> <Hphob>
-5.402875

> <VwInt>
-34.050868

> <Eintl>
5.183837

> <Dsolv>
13.692242

> <SolEl>
17.000015

> <mfScore>
-156.099518

> <RTCNNscore>
-24.003524

> <dTSsc>
1.280497

> <CONF>
0

> <RecConf>
1

> <O>
5207

> <OBJECTS>
RHO_1u19_reg23151[nat=39,nre=1]

> <rxn_ID>
EN_m_275592aba_11001X3438X393

> <synton_id_1>
s14114658

> <synton_id_2>
s0

> <synton_id_3>
s19069832

$$$$
m
  MOLSOFT 07062520553D

 50 52  0  0  0  0  0  0  0  0999 V2000
   60.9333    8.7551  -12.4435 H   0  0  0
   61.1775    9.3685  -11.5710 C   0  0  0
   61.6376   10.2824  -11.9554 H   0  0  0
   62.1753    8.6201  -10.6756 C   0  0  0
   61.7808    7.6312  -10.4448 H   0  0  0
   63.1487    8.5177  -11.1664 H   0  0  0
   62.3853    9.3575   -9.3642 N   0  3  0
   62.7410   10.2901   -9.6193 H   0  0  0
   63.4841    8.8064   -8.4696 C   0  0  0
   64.3914    8.7950   -9.0842 H   0  0  0
   63.6516    9.5848   -7.7153 H   0  0  0
   63.3241    7.4553   -7.8015 C   0  0  0
   62.5037    7.3838   -6.5307 C   0  0  0
   62.0475    8.2805   -6.1306 H   0  0  0
   61.9294    6.4845   -6.3573 H   0  0  0
   63.9879    7.2897   -6.4528 C   0  0  0
   64.3984    6.3272   -6.1787 H   0  0  0
   64.5316    8.1250   -6.0380 H   0  0  0
   63.4378    6.3302   -8.6766 N   0  0  0
   64.3663    6.1017   -9.0193 H   0  0  0
   62.3649    5.5638   -9.0781 C   2  0  0
   61.2007    5.7433   -8.7515 O   2  0  0
   62.7694    4.4556   -9.9981 C   1  0  0
   61.8764    4.0858  -10.5083 H   0  0  0
   63.2365    3.6521   -9.4215 H   0  0  0
   63.4734    4.8213  -10.7517 H   0  0  0
   61.0673    9.5495   -8.6486 C   0  0  0
   60.6549    8.5597   -8.4252 H   0  0  0
   61.2650   10.0883   -7.7160 H   0  0  0
   60.1271   10.3516   -9.5435 C   0  0  0
   60.5575   11.3409   -9.7056 H   0  0  0
   59.1824   10.5249   -9.0316 H   0  0  0
   59.9458    9.7522  -10.8739 N   0  0  0
   58.7367    9.7896  -11.5886 C   0  0  0
   58.6719    9.6001  -12.7964 O   0  0  0
   57.5213   10.0682  -10.8341 C   0  0  0
   56.4795   10.9645  -11.1706 C   0  0  0
   56.4534   11.6265  -12.0248 H   0  0  0
   55.5490   10.8749  -10.1525 C   0  0  0
   54.3436   11.6110   -9.8974 C   0  0  0
   53.7662   11.6042   -8.8240 O   0  0  0
   53.8921   12.3491  -10.9454 N   0  0  0
   53.0464   12.8977  -10.8616 H   0  0  0
   54.3511   12.3391  -11.8448 H   0  0  0
   56.0228    9.8764   -9.3404 N   0  0  0
   57.2313    9.4098   -9.7029 N   0  0  0
   55.3607    9.2896   -8.1810 C   0  0  0
   55.3919   10.0214   -7.3687 H   0  0  0
   55.8900    8.3783   -7.8909 H   0  0  0
   54.3306    9.0386   -8.4526 H   0  0  0
  2  1  1
  2  3  1
  2  4  1
  2 33  1
  4  5  1
  4  6  1
  4  7  1
  7  8  1
  7  9  1
  7 27  1
  9 10  1
  9 11  1
  9 12  1
 12 13  1
 12 19  1
 12 16  1
 13 14  1
 13 15  1
 13 16  1
 16 17  1
 16 18  1
 19 20  1
 19 21  1
 21 22  2
 21 23  1
 23 24  1
 23 25  1
 23 26  1
 27 28  1
 27 29  1
 27 30  1
 30 31  1
 30 32  1
 30 33  1
 33 34  1
 34 35  2
 34 36  1
 36 37  1
 36 46  2
 37 38  1
 37 39  2
 39 40  1
 39 45  1
 40 41  2
 40 42  1
 42 43  1
 42 44  1
 45 46  1
 45 47  1
 47 48  1
 47 49  1
 47 50  1
M  ZZC   1 h21
M  ZZC   2 c2
M  ZZC   3 h22
M  ZZC   4 c3
M  ZZC   5 h31
M  ZZC   6 h32
M  ZZC   7 n2
M  ZZC   8 h01
M  ZZC   9 c4
M  ZZC  10 h41
M  ZZC  11 h42
M  ZZC  12 c5
M  ZZC  13 c7
M  ZZC  14 h71
M  ZZC  15 h72
M  ZZC  16 c8
M  ZZC  17 h81
M  ZZC  18 h82
M  ZZC  19 n3
M  ZZC  20 h02
M  ZZC  21 c6
M  ZZC  22 o3
M  ZZC  23 c16
M  ZZC  24 h161
M  ZZC  25 h162
M  ZZC  26 h163
M  ZZC  27 c9
M  ZZC  28 h91
M  ZZC  29 h92
M  ZZC  30 c10
M  ZZC  31 h101
M  ZZC  32 h102
M  ZZC  33 n1
M  ZZC  34 c1
M  ZZC  35 o1
M  ZZC  36 c12
M  ZZC  37 c13
M  ZZC  38 h131
M  ZZC  39 c14
M  ZZC  40 c15
M  ZZC  41 o2
M  ZZC  42 n6
M  ZZC  43 h61
M  ZZC  44 h62
M  ZZC  45 n4
M  ZZC  46 n5
M  ZZC  47 c11
M  ZZC  48 h111
M  ZZC  49 h112
M  ZZC  50 h113
M  ZZO   1 1.000000
M  ZZO   2 1.000000
M  ZZO   3 1.000000
M  ZZO   4 1.000000
M  ZZO   5 1.000000
M  ZZO   6 1.000000
M  ZZO   7 1.000000
M  ZZO   8 1.000000
M  ZZO   9 1.000000
M  ZZO  10 1.000000
M  ZZO  11 1.000000
M  ZZO  12 1.000000
M  ZZO  13 1.000000
M  ZZO  14 1.000000
M  ZZO  15 1.000000
M  ZZO  16 1.000000
M  ZZO  17 1.000000
M  ZZO  18 1.000000
M  ZZO  19 1.000000
M  ZZO  20 1.000000
M  ZZO  21 1.000000
M  ZZO  22 1.000000
M  ZZO  23 1.000000
M  ZZO  24 1.000000
M  ZZO  25 1.000000
M  ZZO  26 1.000000
M  ZZO  27 1.000000
M  ZZO  28 1.000000
M  ZZO  29 1.000000
M  ZZO  30 1.000000
M  ZZO  31 1.000000
M  ZZO  32 1.000000
M  ZZO  33 1.000000
M  ZZO  34 1.000000
M  ZZO  35 1.000000
M  ZZO  36 1.000000
M  ZZO  37 1.000000
M  ZZO  38 1.000000
M  ZZO  39 1.000000
M  ZZO  40 1.000000
M  ZZO  41 1.000000
M  ZZO  42 1.000000
M  ZZO  43 1.000000
M  ZZO  44 1.000000
M  ZZO  45 1.000000
M  ZZO  46 1.000000
M  ZZO  47 1.000000
M  ZZO  48 1.000000
M  ZZO  49 1.000000
M  ZZO  50 1.000000
M  ZZM   1 5
M  ZZI   1 1
M  ZZM   2 1
M  ZZI   2 112
M  ZZM   3 5
M  ZZI   3 1
M  ZZM   4 1
M  ZZI   4 112
M  ZZM   5 5
M  ZZI   5 1
M  ZZM   6 5
M  ZZI   6 1
M  ZZM   7 34
M  ZZI   7 231
M  ZZM   8 36
M  ZZI   8 17
M  ZZM   9 1
M  ZZI   9 112
M  ZZM  10 5
M  ZZI  10 1
M  ZZM  11 5
M  ZZI  11 1
M  ZZM  12 22
M  ZZI  12 109
M  ZZM  13 22
M  ZZI  13 109
M  ZZM  14 5
M  ZZI  14 1
M  ZZM  15 5
M  ZZI  15 1
M  ZZM  16 22
M  ZZI  16 109
M  ZZM  17 5
M  ZZI  17 1
M  ZZM  18 5
M  ZZI  18 1
M  ZZM  19 10
M  ZZI  19 191
M  ZZM  20 28
M  ZZI  20 11
M  ZZM  21 3
M  ZZI  21 121
M  ZZM  22 7
M  ZZI  22 81
M  ZZM  23 1
M  ZZI  23 111
M  ZZM  24 5
M  ZZI  24 1
M  ZZM  25 5
M  ZZI  25 1
M  ZZM  26 5
M  ZZI  26 1
M  ZZM  27 1
M  ZZI  27 112
M  ZZM  28 5
M  ZZI  28 1
M  ZZM  29 5
M  ZZI  29 1
M  ZZM  30 1
M  ZZI  30 112
M  ZZM  31 5
M  ZZI  31 1
M  ZZM  32 5
M  ZZI  32 1
M  ZZM  33 10
M  ZZI  33 192
M  ZZM  34 3
M  ZZI  34 121
M  ZZM  35 7
M  ZZI  35 81
M  ZZM  36 64
M  ZZI  36 105
M  ZZM  37 64
M  ZZI  37 105
M  ZZM  38 5
M  ZZI  38 2
M  ZZM  39 63
M  ZZI  39 104
M  ZZM  40 3
M  ZZI  40 121
M  ZZM  41 7
M  ZZI  41 81
M  ZZM  42 10
M  ZZI  42 212
M  ZZM  43 28
M  ZZI  43 11
M  ZZM  44 28
M  ZZI  44 11
M  ZZM  45 39
M  ZZI  45 215
M  ZZM  46 65
M  ZZI  46 207
M  ZZM  47 1
M  ZZI  47 111
M  ZZM  48 5
M  ZZI  48 1
M  ZZM  49 5
M  ZZI  49 1
M  ZZM  50 5
M  ZZI  50 1
M  ZZQ   2 0.300000
M  ZZQ   4 0.503000
M  ZZQ   7 -0.509000
M  ZZQ   8 0.450000
M  ZZQ   9 0.598000
M  ZZQ  12 0.054000
M  ZZQ  14 0.100000
M  ZZQ  15 0.100000
M  ZZQ  17 0.100000
M  ZZQ  18 0.100000
M  ZZQ  19 -0.209000
M  ZZQ  20 0.370000
M  ZZQ  21 0.569000
M  ZZQ  22 -0.570000
M  ZZQ  23 0.061000
M  ZZQ  27 0.503000
M  ZZQ  30 0.300000
M  ZZQ  33 -0.660000
M  ZZQ  34 0.716000
M  ZZQ  35 -0.570000
M  ZZQ  36 0.203000
M  ZZQ  38 0.150000
M  ZZQ  39 -0.237000
M  ZZQ  40 0.715000
M  ZZQ  41 -0.570000
M  ZZQ  42 -0.060000
M  ZZQ  43 0.370000
M  ZZQ  44 0.370000
M  ZZQ  45 0.314000
M  ZZQ  46 -0.707000
M  ZZQ  47 0.256000
M  CHG  1   7   1
M  ISO  3  21  14  22  18  23  13
M  END
> <L>
0

> <full_synton_id>
{EN_m_275592afa_11001X3438X125__s21037502_s21831690_s0___23}

> <smiles_synthon_s3>
s-1

> <Tox_Class>
0.

> <Tox_Score>
0.

> <molPAINS>
0.

> <MW>
354.199

> <orig_Score>
-15.178906

> <orig_Score2>
0.

> <LogP>
-2.113

> <IX>
36082

> <NAME>
C8H15N3X2

> <Score>
-26.914963

> <Natom>
50

> <Nflex>
4

> <Hbond>
-10.551109

> <Hphob>
-6.641077

> <VwInt>
-31.843141

> <Eintl>
8.579132

> <Dsolv>
17.120583

> <SolEl>
23.763771

> <mfScore>
-150.073022

> <RTCNNscore>
-29.668969

> <dTSsc>
1.319545

> <CONF>
0

> <RecConf>
1

> <O>
1593

> <OBJECTS>
RHO_1u19_reg36082[nat=52,nre=1]

> <rxn_ID>
EN_m_275592afa_11001X3438X125

> <synton_id_1>
s21037502

> <synton_id_2>
s21831690

> <synton_id_3>
s0

$$$$
m
  MOLSOFT 07062520553D

 34 35  0  0  0  0  0  0  0  0999 V2000
   62.5923   10.6829   -9.2367 H   0  0  0
   61.9709   10.8981   -8.3617 C   0  0  0
   62.3068   11.8350   -7.9176 H   0  0  0
   61.9860    9.7718   -7.3501 C   0  0  0
   61.2716    9.9491   -6.5379 H   0  0  0
   63.3631    9.4109   -6.7852 C   0  0  0
   64.2301    9.6790   -7.3985 H   0  0  0
   63.5115    9.7180   -5.7484 H   0  0  0
   62.9556    8.0180   -6.9656 N   0  0  0
   61.8876    8.3411   -7.9075 C   0  0  0
   60.9391    7.8312   -7.7151 H   0  0  0
   62.2024    8.1885   -8.9453 H   0  0  0
   63.4841    6.8387   -6.4872 C   2  0  0
   64.4243    6.7838   -5.7096 O   2  0  0
   62.8213    5.5988   -7.0250 C   1  0  0
   63.0886    4.7412   -6.4011 H   0  0  0
   63.1591    5.4184   -8.0500 H   0  0  0
   61.7331    5.7042   -7.0137 H   0  0  0
   60.5863   11.0692   -8.7430 N   0  0  0
   60.0148   11.6554   -8.1501 H   0  0  0
   60.0633   10.4471   -9.8569 C   0  0  0
   60.7695    9.7811  -10.5970 O   0  0  0
   58.6278   10.6100  -10.0848 C   0  0  0
   57.7879   11.3164   -9.2349 C   0  0  0
   58.0232   11.8520   -8.3332 H   0  0  0
   56.1480   11.3202   -9.7031 S   0  0  0
   56.5318   10.4709  -11.1217 C   0  0  0
   55.7297   10.2557  -11.8136 H   0  0  0
   57.8640   10.1016  -11.2092 C   0  0  0
   58.2808    9.3251  -12.3641 C   0  0  0
   57.6749    9.3862  -13.4184 O   0  0  0
   59.3362    8.4736  -12.2250 N   0  0  0
   59.5707    7.8566  -12.9937 H   0  0  0
   59.8917    8.3952  -11.3825 H   0  0  0
  2  1  1
  2  3  1
  2  4  1
  2 19  1
  4  5  1
  4  6  1
  4 10  1
  6  7  1
  6  8  1
  6  9  1
  9 10  1
  9 13  1
 10 11  1
 10 12  1
 13 14  2
 13 15  1
 15 16  1
 15 17  1
 15 18  1
 19 20  1
 19 21  1
 21 22  2
 21 23  1
 23 24  2
 23 29  1
 24 25  1
 24 26  1
 26 27  1
 27 28  1
 27 29  2
 29 30  1
 30 31  2
 30 32  1
 32 33  1
 32 34  1
M  ZZC   1 h21
M  ZZC   2 c2
M  ZZC   3 h22
M  ZZC   4 c3
M  ZZC   5 h31
M  ZZC   6 c4
M  ZZC   7 h41
M  ZZC   8 h42
M  ZZC   9 n2
M  ZZC  10 c6
M  ZZC  11 h61
M  ZZC  12 h62
M  ZZC  13 c5
M  ZZC  14 o3
M  ZZC  15 c12
M  ZZC  16 h121
M  ZZC  17 h122
M  ZZC  18 h123
M  ZZC  19 n1
M  ZZC  20 h11
M  ZZC  21 c1
M  ZZC  22 o2
M  ZZC  23 c11
M  ZZC  24 c10
M  ZZC  25 h101
M  ZZC  26 s1
M  ZZC  27 c9
M  ZZC  28 h91
M  ZZC  29 c8
M  ZZC  30 c7
M  ZZC  31 o1
M  ZZC  32 n3
M  ZZC  33 h01
M  ZZC  34 h32
M  ZZO   1 1.000000
M  ZZO   2 1.000000
M  ZZO   3 1.000000
M  ZZO   4 1.000000
M  ZZO   5 1.000000
M  ZZO   6 1.000000
M  ZZO   7 1.000000
M  ZZO   8 1.000000
M  ZZO   9 1.000000
M  ZZO  10 1.000000
M  ZZO  11 1.000000
M  ZZO  12 1.000000
M  ZZO  13 1.000000
M  ZZO  14 1.000000
M  ZZO  15 1.000000
M  ZZO  16 1.000000
M  ZZO  17 1.000000
M  ZZO  18 1.000000
M  ZZO  19 1.000000
M  ZZO  20 1.000000
M  ZZO  21 1.000000
M  ZZO  22 1.000000
M  ZZO  23 1.000000
M  ZZO  24 1.000000
M  ZZO  25 1.000000
M  ZZO  26 1.000000
M  ZZO  27 1.000000
M  ZZO  28 1.000000
M  ZZO  29 1.000000
M  ZZO  30 1.000000
M  ZZO  31 1.000000
M  ZZO  32 1.000000
M  ZZO  33 1.000000
M  ZZO  34 1.000000
M  ZZM   1 5
M  ZZI   1 1
M  ZZM   2 1
M  ZZI   2 112
M  ZZM   3 5
M  ZZI   3 1
M  ZZM   4 20
M  ZZI   4 108
M  ZZM   5 5
M  ZZI   5 1
M  ZZM   6 20
M  ZZI   6 108
M  ZZM   7 5
M  ZZI   7 1
M  ZZM   8 5
M  ZZI   8 1
M  ZZM   9 10
M  ZZI   9 191
M  ZZM  10 20
M  ZZI  10 108
M  ZZM  11 5
M  ZZI  11 1
M  ZZM  12 5
M  ZZI  12 1
M  ZZM  13 3
M  ZZI  13 121
M  ZZM  14 7
M  ZZI  14 81
M  ZZM  15 1
M  ZZI  15 111
M  ZZM  16 5
M  ZZI  16 1
M  ZZM  17 5
M  ZZI  17 1
M  ZZM  18 5
M  ZZI  18 1
M  ZZM  19 10
M  ZZI  19 211
M  ZZM  20 28
M  ZZI  20 11
M  ZZM  21 3
M  ZZI  21 121
M  ZZM  22 7
M  ZZI  22 81
M  ZZM  23 64
M  ZZI  23 105
M  ZZM  24 63
M  ZZI  24 104
M  ZZM  25 5
M  ZZI  25 2
M  ZZM  26 44
M  ZZI  26 248
M  ZZM  27 63
M  ZZI  27 104
M  ZZM  28 5
M  ZZI  28 2
M  ZZM  29 64
M  ZZI  29 105
M  ZZM  30 3
M  ZZI  30 121
M  ZZM  31 7
M  ZZI  31 81
M  ZZM  32 10
M  ZZI  32 212
M  ZZM  33 28
M  ZZI  33 11
M  ZZM  34 28
M  ZZI  34 11
M  ZZQ   2 0.300000
M  ZZQ   6 0.225000
M  ZZQ   9 -0.510000
M  ZZQ  10 0.225000
M  ZZQ  13 0.569000
M  ZZQ  14 -0.570000
M  ZZQ  15 0.061000
M  ZZQ  19 -0.360000
M  ZZQ  20 0.370000
M  ZZQ  21 0.716000
M  ZZQ  22 -0.570000
M  ZZQ  23 -0.086000
M  ZZQ  24 0.040000
M  ZZQ  25 0.150000
M  ZZQ  26 -0.080000
M  ZZQ  27 0.040000
M  ZZQ  28 0.150000
M  ZZQ  29 -0.086000
M  ZZQ  30 0.716000
M  ZZQ  31 -0.570000
M  ZZQ  32 -0.060000
M  ZZQ  33 0.370000
M  ZZQ  34 0.370000
M  ISO  3  13  14  14  18  15  13
M  END
> <L>
0

> <full_synton_id>
{EN_m_275592aea_11001X643X393__s14114808_s18992764_s0___23}

> <smiles_synthon_s3>
s-1

> <Tox_Class>
0.

> <Tox_Score>
0.

> <molPAINS>
0.

> <MW>
286.083

> <orig_Score>
-17.33334

> <orig_Score2>
0.

> <LogP>
-0.525

> <IX>
31716

> <NAME>
C4H8N2X2

> <Score>
-26.820701

> <Natom>
34

> <Nflex>
3

> <Hbond>
-5.525222

> <Hphob>
-4.876467

> <VwInt>
-26.265004

> <Eintl>
2.826295

> <Dsolv>
12.102495

> <SolEl>
6.238938

> <mfScore>
-106.444555

> <RTCNNscore>
-19.789585

> <dTSsc>
1.166804

> <CONF>
0

> <RecConf>
1

> <O>
6889

> <OBJECTS>
RHO_1u19_reg31716[nat=36,nre=1]

> <rxn_ID>
EN_m_275592aea_11001X643X393

> <synton_id_1>
s14114808

> <synton_id_2>
s18992764

> <synton_id_3>
s0

$$$$
m
  MOLSOFT 07062520553D

 43 44  0  0  0  0  0  0  0  0999 V2000
   63.8720    7.6782   -6.6011 H   0  0  0
   63.7469    8.0367   -7.6283 C   0  0  0
   64.5929    8.6890   -7.8589 H   0  0  0
   63.8562    6.8792   -8.5008 N   0  0  0
   64.6548    6.8336   -9.1290 H   0  0  0
   63.0069    5.7973   -8.3913 C   2  0  0
   62.1086    5.7144   -7.5681 O   2  0  0
   63.2674    4.7140   -9.4022 C   1  0  0
   62.3145    4.3755   -9.8183 H   0  0  0
   63.7686    3.8757   -8.9139 H   0  0  0
   63.8888    5.0764  -10.2261 H   0  0  0
   62.4313    8.8310   -7.7333 C   0  0  0
   61.5440    8.2191   -7.5445 H   0  0  0
   62.4572    9.6241   -6.9786 H   0  0  0
   62.2513    9.5099   -9.0922 N   0  3  0
   63.1632    9.9344   -9.3253 H   0  0  0
   61.2745   10.6693   -9.0181 C   0  0  0
   61.2846   11.0768   -8.0032 H   0  0  0
   61.6680   11.4387   -9.6840 H   0  0  0
   59.8658   10.2458   -9.4397 C   0  0  0
   59.5151    9.4407   -8.7902 H   0  0  0
   59.1832   11.0928   -9.3297 H   0  0  0
   59.8147    9.7353  -10.8103 N   0  0  0
   61.0666    9.1797  -11.3234 C   0  0  0
   60.8455    8.4427  -12.1022 H   0  0  0
   61.6192    9.9916  -11.8067 H   0  0  0
   61.9155    8.5347  -10.2219 C   0  0  0
   62.8619    8.1675  -10.6312 H   0  0  0
   61.3616    7.6976   -9.7841 H   0  0  0
   58.6931    9.8032  -11.6494 C   0  0  0
   58.7480    9.4645  -12.8232 O   0  0  0
   57.4646   10.2959  -11.0743 C   0  0  0
   56.7701    9.8808   -9.9555 C   0  0  0
   57.1041    9.0603   -9.3424 H   0  0  0
   55.6073   10.6638   -9.6877 C   0  0  0
   55.4376   11.6333  -10.6533 C   0  0  0
   54.6425   12.3633  -10.7313 H   0  0  0
   56.6346   11.5697  -11.8713 S   0  0  0
   54.6926   10.5285   -8.5762 C   0  0  0
   54.0370   11.4615   -8.1398 O   0  0  0
   54.6157    9.2729   -8.0501 N   0  0  0
   53.9762    9.1241   -7.2816 H   0  0  0
   55.1134    8.4698   -8.4150 H   0  0  0
  2  1  1
  2  3  1
  2  4  1
  2 12  1
  4  5  1
  4  6  1
  6  7  2
  6  8  1
  8  9  1
  8 10  1
  8 11  1
 12 13  1
 12 14  1
 12 15  1
 15 16  1
 15 17  1
 15 27  1
 17 18  1
 17 19  1
 17 20  1
 20 21  1
 20 22  1
 20 23  1
 23 24  1
 23 30  1
 24 25  1
 24 26  1
 24 27  1
 27 28  1
 27 29  1
 30 31  2
 30 32  1
 32 33  2
 32 38  1
 33 34  1
 33 35  1
 35 36  2
 35 39  1
 36 37  1
 36 38  1
 39 40  2
 39 41  1
 41 42  1
 41 43  1
M  ZZC   1 h21
M  ZZC   2 c2
M  ZZC   3 h22
M  ZZC   4 n1
M  ZZC   5 h11
M  ZZC   6 c1
M  ZZC   7 o1
M  ZZC   8 c9
M  ZZC   9 h91
M  ZZC  10 h92
M  ZZC  11 h93
M  ZZC  12 c3
M  ZZC  13 h31
M  ZZC  14 h32
M  ZZC  15 n2
M  ZZC  16 h01
M  ZZC  17 c4
M  ZZC  18 h41
M  ZZC  19 h42
M  ZZC  20 c5
M  ZZC  21 h51
M  ZZC  22 h52
M  ZZC  23 n3
M  ZZC  24 c7
M  ZZC  25 h71
M  ZZC  26 h72
M  ZZC  27 c8
M  ZZC  28 h81
M  ZZC  29 h82
M  ZZC  30 c6
M  ZZC  31 o3
M  ZZC  32 c13
M  ZZC  33 c14
M  ZZC  34 h141
M  ZZC  35 c11
M  ZZC  36 c12
M  ZZC  37 h121
M  ZZC  38 s1
M  ZZC  39 c10
M  ZZC  40 o2
M  ZZC  41 n4
M  ZZC  42 h02
M  ZZC  43 h03
M  ZZO   1 1.000000
M  ZZO   2 1.000000
M  ZZO   3 1.000000
M  ZZO   4 1.000000
M  ZZO   5 1.000000
M  ZZO   6 1.000000
M  ZZO   7 1.000000
M  ZZO   8 1.000000
M  ZZO   9 1.000000
M  ZZO  10 1.000000
M  ZZO  11 1.000000
M  ZZO  12 1.000000
M  ZZO  13 1.000000
M  ZZO  14 1.000000
M  ZZO  15 1.000000
M  ZZO  16 1.000000
M  ZZO  17 1.000000
M  ZZO  18 1.000000
M  ZZO  19 1.000000
M  ZZO  20 1.000000
M  ZZO  21 1.000000
M  ZZO  22 1.000000
M  ZZO  23 1.000000
M  ZZO  24 1.000000
M  ZZO  25 1.000000
M  ZZO  26 1.000000
M  ZZO  27 1.000000
M  ZZO  28 1.000000
M  ZZO  29 1.000000
M  ZZO  30 1.000000
M  ZZO  31 1.000000
M  ZZO  32 1.000000
M  ZZO  33 1.000000
M  ZZO  34 1.000000
M  ZZO  35 1.000000
M  ZZO  36 1.000000
M  ZZO  37 1.000000
M  ZZO  38 1.000000
M  ZZO  39 1.000000
M  ZZO  40 1.000000
M  ZZO  41 1.000000
M  ZZO  42 1.000000
M  ZZO  43 1.000000
M  ZZM   1 5
M  ZZI   1 1
M  ZZM   2 1
M  ZZI   2 112
M  ZZM   3 5
M  ZZI   3 1
M  ZZM   4 10
M  ZZI   4 211
M  ZZM   5 28
M  ZZI   5 11
M  ZZM   6 3
M  ZZI   6 121
M  ZZM   7 7
M  ZZI   7 81
M  ZZM   8 1
M  ZZI   8 111
M  ZZM   9 5
M  ZZI   9 1
M  ZZM  10 5
M  ZZI  10 1
M  ZZM  11 5
M  ZZI  11 1
M  ZZM  12 1
M  ZZI  12 112
M  ZZM  13 5
M  ZZI  13 1
M  ZZM  14 5
M  ZZI  14 1
M  ZZM  15 34
M  ZZI  15 231
M  ZZM  16 36
M  ZZI  16 17
M  ZZM  17 1
M  ZZI  17 112
M  ZZM  18 5
M  ZZI  18 1
M  ZZM  19 5
M  ZZI  19 1
M  ZZM  20 1
M  ZZI  20 112
M  ZZM  21 5
M  ZZI  21 1
M  ZZM  22 5
M  ZZI  22 1
M  ZZM  23 10
M  ZZI  23 192
M  ZZM  24 1
M  ZZI  24 112
M  ZZM  25 5
M  ZZI  25 1
M  ZZM  26 5
M  ZZI  26 1
M  ZZM  27 1
M  ZZI  27 112
M  ZZM  28 5
M  ZZI  28 1
M  ZZM  29 5
M  ZZI  29 1
M  ZZM  30 3
M  ZZI  30 121
M  ZZM  31 7
M  ZZI  31 81
M  ZZM  32 63
M  ZZI  32 104
M  ZZM  33 64
M  ZZI  33 105
M  ZZM  34 5
M  ZZI  34 2
M  ZZM  35 64
M  ZZI  35 105
M  ZZM  36 63
M  ZZI  36 104
M  ZZM  37 5
M  ZZI  37 2
M  ZZM  38 44
M  ZZI  38 248
M  ZZM  39 3
M  ZZI  39 121
M  ZZM  40 7
M  ZZI  40 81
M  ZZM  41 10
M  ZZI  41 212
M  ZZM  42 28
M  ZZI  42 11
M  ZZM  43 28
M  ZZI  43 11
M  ZZQ   2 0.300000
M  ZZQ   4 -0.360000
M  ZZQ   5 0.370000
M  ZZQ   6 0.569000
M  ZZQ   7 -0.570000
M  ZZQ   8 0.061000
M  ZZQ  12 0.503000
M  ZZQ  15 -0.509000
M  ZZQ  16 0.450000
M  ZZQ  17 0.503000
M  ZZQ  20 0.300000
M  ZZQ  23 -0.660000
M  ZZQ  24 0.300000
M  ZZQ  27 0.503000
M  ZZQ  30 0.715000
M  ZZQ  31 -0.570000
M  ZZQ  32 -0.045000
M  ZZQ  34 0.150000
M  ZZQ  35 -0.086000
M  ZZQ  36 0.040000
M  ZZQ  37 0.150000
M  ZZQ  38 -0.080000
M  ZZQ  39 0.716000
M  ZZQ  40 -0.570000
M  ZZQ  41 -0.060000
M  ZZQ  42 0.370000
M  ZZQ  43 0.370000
M  CHG  1  15   1
M  ISO  3   6  14   7  18   8  13
M  END
> <L>
0

> <full_synton_id>
{EN_m_275592aba_11001X3438X393__s14114700_s0_s14129884___23}

> <smiles_synthon_s3>
s-1

> <Tox_Class>
0.

> <Tox_Score>
0.

> <molPAINS>
0.

> <MW>
330.133

> <orig_Score>
-14.975978

> <orig_Score2>
0.

> <LogP>
-1.198

> <IX>
14637

> <NAME>
C6H13N3X2

> <Score>
-26.561664

> <Natom>
43

> <Nflex>
4

> <Hbond>
-10.738647

> <Hphob>
-5.989791

> <VwInt>
-32.948591

> <Eintl>
10.049369

> <Dsolv>
16.297059

> <SolEl>
25.630983

> <mfScore>
-141.187204

> <RTCNNscore>
-29.389834

> <dTSsc>
1.324458

> <CONF>
0

> <RecConf>
1

> <O>
3801

> <OBJECTS>
RHO_1u19_reg14637[nat=45,nre=1]

> <rxn_ID>
EN_m_275592aba_11001X3438X393

> <synton_id_1>
s14114700

> <synton_id_2>
s0

> <synton_id_3>
s14129884

$$$$
m
  MOLSOFT 07062520553D

 49 50  0  0  0  0  0  0  0  0999 V2000
   64.0454    9.1807   -6.5755 H   0  0  0
   64.2854    8.3881   -7.2920 C   0  0  0
   64.7513    8.8487   -8.1683 H   0  0  0
   65.0342    7.7368   -6.8311 H   0  0  0
   63.0525    7.5753   -7.6776 C   0  0  0
   62.6552    6.7618   -6.4404 C   0  0  0
   63.4223    6.0258   -6.1761 H   0  0  0
   61.7242    6.2111   -6.6029 H   0  0  0
   62.5096    7.4117   -5.5720 H   0  0  0
   63.4237    6.6531   -8.7534 N   0  0  0
   64.3946    6.6490   -9.0618 H   0  0  0
   62.5485    5.7427   -9.3138 C   2  0  0
   61.3574    5.6586   -9.0551 O   2  0  0
   63.2052    4.8183  -10.2904 C   1  0  0
   62.4665    4.5280  -11.0396 H   0  0  0
   63.5621    3.9318   -9.7588 H   0  0  0
   64.0453    5.3062  -10.7923 H   0  0  0
   61.8679    8.5174   -8.0394 C   0  0  0
   60.9853    7.9666   -8.3739 H   0  0  0
   61.5724    9.0593   -7.1339 H   0  0  0
   62.1689    9.5985   -9.0862 N   0  3  0
   63.0951    9.9928   -8.8679 H   0  0  0
   61.2005   10.7506   -8.9809 C   0  0  0
   61.1846   11.0930   -7.9417 H   0  0  0
   61.6139   11.5569   -9.5882 H   0  0  0
   59.8072   10.3354   -9.4659 C   0  0  0
   59.3844    9.6042   -8.7772 H   0  0  0
   59.1538   11.2119   -9.4519 H   0  0  0
   59.7876    9.7136  -10.7953 N   0  0  0
   60.8702    8.7714  -11.1048 C   0  0  0
   60.5630    7.8020  -10.7015 H   0  0  0
   60.9422    8.6353  -12.1881 H   0  0  0
   62.2458    9.1571  -10.5396 C   0  0  0
   62.6528   10.0092  -11.0950 H   0  0  0
   62.9702    8.3449  -10.6255 H   0  0  0
   58.6791    9.7672  -11.6538 C   0  0  0
   58.7254    9.3524  -12.8036 O   0  0  0
   57.4564   10.2976  -11.1004 C   0  0  0
   56.7469    9.8854   -9.9898 C   0  0  0
   57.0666    9.0567   -9.3794 H   0  0  0
   55.5969   10.6837   -9.7214 C   0  0  0
   55.4455   11.6581  -10.6857 C   0  0  0
   54.6599   12.3979  -10.7653 H   0  0  0
   56.6493   11.5833  -11.8991 S   0  0  0
   54.6817   10.5555   -8.6090 C   0  0  0
   54.0331   11.4934   -8.1733 O   0  0  0
   54.5995    9.3024   -8.0768 N   0  0  0
   53.9631    9.1602   -7.3042 H   0  0  0
   55.0922    8.4948   -8.4386 H   0  0  0
  2  1  1
  2  3  1
  2  4  1
  2  5  1
  5  6  1
  5 10  1
  5 18  1
  6  7  1
  6  8  1
  6  9  1
 10 11  1
 10 12  1
 12 13  2
 12 14  1
 14 15  1
 14 16  1
 14 17  1
 18 19  1
 18 20  1
 18 21  1
 21 22  1
 21 23  1
 21 33  1
 23 24  1
 23 25  1
 23 26  1
 26 27  1
 26 28  1
 26 29  1
 29 30  1
 29 36  1
 30 31  1
 30 32  1
 30 33  1
 33 34  1
 33 35  1
 36 37  2
 36 38  1
 38 39  2
 38 44  1
 39 40  1
 39 41  1
 41 42  2
 41 45  1
 42 43  1
 42 44  1
 45 46  2
 45 47  1
 47 48  1
 47 49  1
M  ZZC   1 h11
M  ZZC   2 c1
M  ZZC   3 h12
M  ZZC   4 h13
M  ZZC   5 c2
M  ZZC   6 c3
M  ZZC   7 h31
M  ZZC   8 h32
M  ZZC   9 h33
M  ZZC  10 n3
M  ZZC  11 h02
M  ZZC  12 c10
M  ZZC  13 o1
M  ZZC  14 c11
M  ZZC  15 h111
M  ZZC  16 h112
M  ZZC  17 h113
M  ZZC  18 c4
M  ZZC  19 h41
M  ZZC  20 h42
M  ZZC  21 n1
M  ZZC  22 h01
M  ZZC  23 c5
M  ZZC  24 h51
M  ZZC  25 h52
M  ZZC  26 c6
M  ZZC  27 h61
M  ZZC  28 h62
M  ZZC  29 n2
M  ZZC  30 c8
M  ZZC  31 h81
M  ZZC  32 h82
M  ZZC  33 c9
M  ZZC  34 h91
M  ZZC  35 h92
M  ZZC  36 c7
M  ZZC  37 o3
M  ZZC  38 c15
M  ZZC  39 c16
M  ZZC  40 h161
M  ZZC  41 c13
M  ZZC  42 c14
M  ZZC  43 h141
M  ZZC  44 s1
M  ZZC  45 c12
M  ZZC  46 o2
M  ZZC  47 n4
M  ZZC  48 h03
M  ZZC  49 h04
M  ZZO   1 1.000000
M  ZZO   2 1.000000
M  ZZO   3 1.000000
M  ZZO   4 1.000000
M  ZZO   5 1.000000
M  ZZO   6 1.000000
M  ZZO   7 1.000000
M  ZZO   8 1.000000
M  ZZO   9 1.000000
M  ZZO  10 1.000000
M  ZZO  11 1.000000
M  ZZO  12 1.000000
M  ZZO  13 1.000000
M  ZZO  14 1.000000
M  ZZO  15 1.000000
M  ZZO  16 1.000000
M  ZZO  17 1.000000
M  ZZO  18 1.000000
M  ZZO  19 1.000000
M  ZZO  20 1.000000
M  ZZO  21 1.000000
M  ZZO  22 1.000000
M  ZZO  23 1.000000
M  ZZO  24 1.000000
M  ZZO  25 1.000000
M  ZZO  26 1.000000
M  ZZO  27 1.000000
M  ZZO  28 1.000000
M  ZZO  29 1.000000
M  ZZO  30 1.000000
M  ZZO  31 1.000000
M  ZZO  32 1.000000
M  ZZO  33 1.000000
M  ZZO  34 1.000000
M  ZZO  35 1.000000
M  ZZO  36 1.000000
M  ZZO  37 1.000000
M  ZZO  38 1.000000
M  ZZO  39 1.000000
M  ZZO  40 1.000000
M  ZZO  41 1.000000
M  ZZO  42 1.000000
M  ZZO  43 1.000000
M  ZZO  44 1.000000
M  ZZO  45 1.000000
M  ZZO  46 1.000000
M  ZZO  47 1.000000
M  ZZO  48 1.000000
M  ZZO  49 1.000000
M  ZZM   1 5
M  ZZI   1 1
M  ZZM   2 1
M  ZZI   2 111
M  ZZM   3 5
M  ZZI   3 1
M  ZZM   4 5
M  ZZI   4 1
M  ZZM   5 1
M  ZZI   5 115
M  ZZM   6 1
M  ZZI   6 111
M  ZZM   7 5
M  ZZI   7 1
M  ZZM   8 5
M  ZZI   8 1
M  ZZM   9 5
M  ZZI   9 1
M  ZZM  10 10
M  ZZI  10 211
M  ZZM  11 28
M  ZZI  11 11
M  ZZM  12 3
M  ZZI  12 121
M  ZZM  13 7
M  ZZI  13 81
M  ZZM  14 1
M  ZZI  14 111
M  ZZM  15 5
M  ZZI  15 1
M  ZZM  16 5
M  ZZI  16 1
M  ZZM  17 5
M  ZZI  17 1
M  ZZM  18 1
M  ZZI  18 112
M  ZZM  19 5
M  ZZI  19 1
M  ZZM  20 5
M  ZZI  20 1
M  ZZM  21 34
M  ZZI  21 231
M  ZZM  22 36
M  ZZI  22 17
M  ZZM  23 1
M  ZZI  23 112
M  ZZM  24 5
M  ZZI  24 1
M  ZZM  25 5
M  ZZI  25 1
M  ZZM  26 1
M  ZZI  26 112
M  ZZM  27 5
M  ZZI  27 1
M  ZZM  28 5
M  ZZI  28 1
M  ZZM  29 10
M  ZZI  29 192
M  ZZM  30 1
M  ZZI  30 112
M  ZZM  31 5
M  ZZI  31 1
M  ZZM  32 5
M  ZZI  32 1
M  ZZM  33 1
M  ZZI  33 112
M  ZZM  34 5
M  ZZI  34 1
M  ZZM  35 5
M  ZZI  35 1
M  ZZM  36 3
M  ZZI  36 121
M  ZZM  37 7
M  ZZI  37 81
M  ZZM  38 63
M  ZZI  38 104
M  ZZM  39 64
M  ZZI  39 105
M  ZZM  40 5
M  ZZI  40 2
M  ZZM  41 64
M  ZZI  41 105
M  ZZM  42 63
M  ZZI  42 104
M  ZZM  43 5
M  ZZI  43 2
M  ZZM  44 44
M  ZZI  44 248
M  ZZM  45 3
M  ZZI  45 121
M  ZZM  46 7
M  ZZI  46 81
M  ZZM  47 10
M  ZZI  47 212
M  ZZM  48 28
M  ZZI  48 11
M  ZZM  49 28
M  ZZI  49 11
M  ZZQ   5 0.300000
M  ZZQ  10 -0.360000
M  ZZQ  11 0.370000
M  ZZQ  12 0.569000
M  ZZQ  13 -0.570000
M  ZZQ  14 0.061000
M  ZZQ  18 0.503000
M  ZZQ  21 -0.509000
M  ZZQ  22 0.450000
M  ZZQ  23 0.503000
M  ZZQ  26 0.300000
M  ZZQ  29 -0.660000
M  ZZQ  30 0.300000
M  ZZQ  33 0.503000
M  ZZQ  36 0.715000
M  ZZQ  37 -0.570000
M  ZZQ  38 -0.045000
M  ZZQ  40 0.150000
M  ZZQ  41 -0.086000
M  ZZQ  42 0.040000
M  ZZQ  43 0.150000
M  ZZQ  44 -0.080000
M  ZZQ  45 0.716000
M  ZZQ  46 -0.570000
M  ZZQ  47 -0.060000
M  ZZQ  48 0.370000
M  ZZQ  49 0.370000
M  CHG  1  21   1
M  ISO  3  12  14  13  18  14  13
M  END
> <L>
0

> <full_synton_id>
{EN_m_275592aha_11001X3438X152__s15064726_s0_s14129884___23}

> <smiles_synthon_s3>
s-1

> <Tox_Class>
0.

> <Tox_Score>
0.

> <molPAINS>
0.

> <MW>
358.165

> <orig_Score>
-15.228234

> <orig_Score2>
0.

> <LogP>
-0.409

> <IX>
31349

> <NAME>
C8H17N3X2

> <Score>
-26.296264

> <Natom>
49

> <Nflex>
4

> <Hbond>
-10.369415

> <Hphob>
-6.600327

> <VwInt>
-32.093847

> <Eintl>
7.748011

> <Dsolv>
15.771789

> <SolEl>
26.631473

> <mfScore>
-155.000599

> <RTCNNscore>
-32.107282

> <dTSsc>
1.329134

> <CONF>
0

> <RecConf>
1

> <O>
1423

> <OBJECTS>
RHO_1u19_reg31349[nat=51,nre=1]

> <rxn_ID>
EN_m_275592aha_11001X3438X152

> <synton_id_1>
s15064726

> <synton_id_2>
s0

> <synton_id_3>
s14129884

$$$$
m
  MOLSOFT 07062520553D

 37 38  0  0  1  0  0  0  0  0999 V2000
   62.7614   10.4235   -9.2058 H   0  0  0
   62.1582   10.6520   -8.3205 C   0  0  0
   62.5371   11.5836   -7.8960 H   0  0  0
   62.2335    9.5347   -7.3260 C   0  0  2
   61.4292    8.8159   -7.4320 H   0  0  0
   62.7853    9.7769   -5.9482 C   0  0  0
   63.1193   10.7721   -5.6895 H   0  0  0
   62.3334    9.2416   -5.1263 H   0  0  0
   63.5944    8.9987   -6.9493 C   0  0  2
   64.4601    9.4865   -7.3798 H   0  0  0
   63.8164    7.5281   -6.7621 C   0  0  0
   64.7631    7.3550   -6.2420 H   0  0  0
   63.0181    7.0709   -6.1675 H   0  0  0
   63.9041    6.8712   -8.0489 N   0  0  0
   64.7621    6.9714   -8.5847 H   0  0  0
   62.8307    6.1975   -8.5957 C   2  0  0
   61.7397    6.0638   -8.0603 O   2  0  0
   63.1330    5.6048   -9.9441 C   1  0  0
   62.2088    5.2353  -10.3986 H   0  0  0
   63.8330    4.7715   -9.8329 H   0  0  0
   63.5642    6.3669  -10.6010 H   0  0  0
   60.7921   10.8945   -8.7226 N   0  0  0
   60.3050   11.6690   -8.2917 H   0  0  0
   60.1942   10.0991   -9.6774 C   0  0  0
   60.8035    9.1853  -10.2099 O   0  0  0
   58.8037   10.4106  -10.0058 C   0  0  0
   57.9986   11.1980   -9.1949 C   0  0  0
   58.2463   11.6954   -8.2751 H   0  0  0
   58.0539   10.0024  -11.1823 C   0  0  0
   56.7534   10.4808  -11.1365 C   0  0  0
   55.9640   10.3462  -11.8629 H   0  0  0
   56.3897   11.3580   -9.7309 S   0  0  0
   58.4418    9.2321  -12.3529 C   0  0  0
   57.8282    9.3341  -13.3997 O   0  0  0
   59.4756    8.3507  -12.2511 N   0  0  0
   59.6740    7.7442  -13.0379 H   0  0  0
   60.0159    8.2006  -11.4091 H   0  0  0
  2  1  1
  2  3  1
  4  2  1
  2 22  1
  4  5  1
  4  6  1
  4  9  1
  6  7  1
  6  8  1
  9  6  1
  9 10  1
  9 11  1
 11 12  1
 11 13  1
 11 14  1
 14 15  1
 14 16  1
 16 17  2
 16 18  1
 18 19  1
 18 20  1
 18 21  1
 22 23  1
 22 24  1
 24 25  2
 24 26  1
 26 27  2
 26 29  1
 27 28  1
 27 32  1
 29 30  2
 29 33  1
 30 31  1
 30 32  1
 33 34  2
 33 35  1
 35 36  1
 35 37  1
M  ZZC   1 h21
M  ZZC   2 c2
M  ZZC   3 h22
M  ZZC   4 c3
M  ZZC   5 h31
M  ZZC   6 c4
M  ZZC   7 h41
M  ZZC   8 h42
M  ZZC   9 c5
M  ZZC  10 h51
M  ZZC  11 c6
M  ZZC  12 h61
M  ZZC  13 h62
M  ZZC  14 n2
M  ZZC  15 h01
M  ZZC  16 c7
M  ZZC  17 o3
M  ZZC  18 c13
M  ZZC  19 h131
M  ZZC  20 h132
M  ZZC  21 h133
M  ZZC  22 n1
M  ZZC  23 h11
M  ZZC  24 c1
M  ZZC  25 o2
M  ZZC  26 c12
M  ZZC  27 c11
M  ZZC  28 h111
M  ZZC  29 c9
M  ZZC  30 c10
M  ZZC  31 h101
M  ZZC  32 s1
M  ZZC  33 c8
M  ZZC  34 o1
M  ZZC  35 n3
M  ZZC  36 h02
M  ZZC  37 h32
M  ZZO   1 1.000000
M  ZZO   2 1.000000
M  ZZO   3 1.000000
M  ZZO   4 1.000000
M  ZZO   5 1.000000
M  ZZO   6 1.000000
M  ZZO   7 1.000000
M  ZZO   8 1.000000
M  ZZO   9 1.000000
M  ZZO  10 1.000000
M  ZZO  11 1.000000
M  ZZO  12 1.000000
M  ZZO  13 1.000000
M  ZZO  14 1.000000
M  ZZO  15 1.000000
M  ZZO  16 1.000000
M  ZZO  17 1.000000
M  ZZO  18 1.000000
M  ZZO  19 1.000000
M  ZZO  20 1.000000
M  ZZO  21 1.000000
M  ZZO  22 1.000000
M  ZZO  23 1.000000
M  ZZO  24 1.000000
M  ZZO  25 1.000000
M  ZZO  26 1.000000
M  ZZO  27 1.000000
M  ZZO  28 1.000000
M  ZZO  29 1.000000
M  ZZO  30 1.000000
M  ZZO  31 1.000000
M  ZZO  32 1.000000
M  ZZO  33 1.000000
M  ZZO  34 1.000000
M  ZZO  35 1.000000
M  ZZO  36 1.000000
M  ZZO  37 1.000000
M  ZZM   1 5
M  ZZI   1 1
M  ZZM   2 1
M  ZZI   2 112
M  ZZM   3 5
M  ZZI   3 1
M  ZZM   4 22
M  ZZI   4 109
M  ZZM   5 5
M  ZZI   5 1
M  ZZM   6 22
M  ZZI   6 109
M  ZZM   7 5
M  ZZI   7 1
M  ZZM   8 5
M  ZZI   8 1
M  ZZM   9 22
M  ZZI   9 109
M  ZZM  10 5
M  ZZI  10 1
M  ZZM  11 1
M  ZZI  11 112
M  ZZM  12 5
M  ZZI  12 1
M  ZZM  13 5
M  ZZI  13 1
M  ZZM  14 10
M  ZZI  14 211
M  ZZM  15 28
M  ZZI  15 11
M  ZZM  16 3
M  ZZI  16 121
M  ZZM  17 7
M  ZZI  17 81
M  ZZM  18 1
M  ZZI  18 111
M  ZZM  19 5
M  ZZI  19 1
M  ZZM  20 5
M  ZZI  20 1
M  ZZM  21 5
M  ZZI  21 1
M  ZZM  22 10
M  ZZI  22 211
M  ZZM  23 28
M  ZZI  23 11
M  ZZM  24 3
M  ZZI  24 121
M  ZZM  25 7
M  ZZI  25 81
M  ZZM  26 64
M  ZZI  26 105
M  ZZM  27 63
M  ZZI  27 104
M  ZZM  28 5
M  ZZI  28 2
M  ZZM  29 64
M  ZZI  29 105
M  ZZM  30 63
M  ZZI  30 104
M  ZZM  31 5
M  ZZI  31 2
M  ZZM  32 44
M  ZZI  32 248
M  ZZM  33 3
M  ZZI  33 121
M  ZZM  34 7
M  ZZI  34 81
M  ZZM  35 10
M  ZZI  35 212
M  ZZM  36 28
M  ZZI  36 11
M  ZZM  37 28
M  ZZI  37 11
M  ZZQ   2 0.395000
M  ZZQ   4 -0.095000
M  ZZQ   5 0.100000
M  ZZQ   7 0.100000
M  ZZQ   8 0.100000
M  ZZQ   9 -0.095000
M  ZZQ  10 0.100000
M  ZZQ  11 0.395000
M  ZZQ  14 -0.360000
M  ZZQ  15 0.370000
M  ZZQ  16 0.569000
M  ZZQ  17 -0.570000
M  ZZQ  18 0.061000
M  ZZQ  22 -0.360000
M  ZZQ  23 0.370000
M  ZZQ  24 0.716000
M  ZZQ  25 -0.570000
M  ZZQ  26 -0.086000
M  ZZQ  27 0.040000
M  ZZQ  28 0.150000
M  ZZQ  29 -0.086000
M  ZZQ  30 0.040000
M  ZZQ  31 0.150000
M  ZZQ  32 -0.080000
M  ZZQ  33 0.716000
M  ZZQ  34 -0.570000
M  ZZQ  35 -0.060000
M  ZZQ  36 0.370000
M  ZZQ  37 0.370000
M  ISO  3  16  14  17  18  18  13
M  END
> <L>
0

> <full_synton_id>
{EN_m_275592aea_11001X643X393__s18896910_s18992764_s0___23}

> <smiles_synthon_s3>
s-1

> <Tox_Class>
0.

> <Tox_Score>
0.

> <molPAINS>
0.

> <MW>
300.099

> <orig_Score>
-17.33334

> <orig_Score2>
0.

> <LogP>
-0.617

> <IX>
31921

> <NAME>
C5H10N2X2

> <Score>
-26.025046

> <Natom>
37

> <Nflex>
4

> <Hbond>
-7.669257

> <Hphob>
-5.340576

> <VwInt>
-28.344216

> <Eintl>
6.36268

> <Dsolv>
12.882568

> <SolEl>
14.274308

> <mfScore>
-114.579556

> <RTCNNscore>
-23.929888

> <dTSsc>
1.267699

> <CONF>
0

> <RecConf>
1

> <O>
6913

> <OBJECTS>
RHO_1u19_reg31921[nat=39,nre=1]

> <rxn_ID>
EN_m_275592aea_11001X643X393

> <synton_id_1>
s18896910

> <synton_id_2>
s18992764

> <synton_id_3>
s0

$$$$
